BrC(CC1CCC1)c1ccccc1
     RDKit          3D

 13 14  0  0  0  0  0  0  0  0999 V2000
    9.7398   -3.6520   24.2019 Br  0  0  0  0  0  0  0  0  0  0  0  0
    9.9339   -1.9081   23.3447 C   0  0  2  0  0  0  0  0  0  0  0  0
    9.1537   -1.8302   22.0227 C   0  0  0  0  0  0  0  0  0  0  0  0
    9.3035   -0.4840   21.2781 C   0  0  0  0  0  0  0  0  0  0  0  0
    8.4723   -0.4154   19.9966 C   0  0  0  0  0  0  0  0  0  0  0  0
    7.6620    0.7335   20.5786 C   0  0  0  0  0  0  0  0  0  0  0  0
    8.4773    0.6651   21.8609 C   0  0  0  0  0  0  0  0  0  0  0  0
   11.3670   -1.4722   23.1623 C   0  0  0  0  0  0  0  0  0  0  0  0
   11.8504   -0.3879   23.9133 C   0  0  0  0  0  0  0  0  0  0  0  0
   13.1487    0.0827   23.7174 C   0  0  0  0  0  0  0  0  0  0  0  0
   13.9732   -0.5184   22.7653 C   0  0  0  0  0  0  0  0  0  0  0  0
   13.4976   -1.5858   22.0014 C   0  0  0  0  0  0  0  0  0  0  0  0
   12.1974   -2.0563   22.1894 C   0  0  0  0  0  0  0  0  0  0  0  0
  2  1  1  0
  2  3  1  6
  2  8  1  0
  3  4  1  0
  4  5  1  0
  5  6  1  0
  6  7  1  0
  7  4  1  0
  8  9  2  0
  9 10  1  0
 10 11  2  0
 11 12  1  0
 12 13  2  0
 13  8  1  0
M  END
>  <Hit>  (1) 
Mpro-x0072_0

>  <Receptor>  (1) 
Mpro-x0387_0

>  <SCORE>  (1) 
-6.0579999999999998

>  <SCORE.norm>  (1) 
-0.46600000000000003

>  <SCORE.heavy>  (1) 
13

>  <OrigSmiles>  (1) 
BrC(CC1CCC1)c1ccccc1

>  <SuCOS_Score>  (1) 
0.48730981021167646

>  <Max_SuCOS_Score>  (1) 
0.48730981021167646

>  <Cum_SuCOS_Score>  (1) 
5.1999691733894213

>  <TransFSScore_50nM>  (1) 
0.016473999999999999

>  <TransFSScore_1uM>  (1) 
0.34628300000000001

>  <TransFSScore_10nM>  (1) 
0.0084550000000000007

>  <TransFSScore_200nM>  (1) 
0.081581000000000001

>  <TransFSScore>  (1) 
0.11319825

>  <FeatureSteinScore>  (1) 
0.4262534643666806

$$$$
BrC(Cc1ccccc1)C1CCC1
     RDKit          3D

 13 14  0  0  0  0  0  0  0  0999 V2000
    7.7852   -3.5144   22.0702 Br  0  0  0  0  0  0  0  0  0  0  0  0
    9.5482   -2.9273   22.6618 C   0  0  1  0  0  0  0  0  0  0  0  0
    9.7970   -1.4624   22.2573 C   0  0  0  0  0  0  0  0  0  0  0  0
   11.2390   -1.0913   22.4655 C   0  0  0  0  0  0  0  0  0  0  0  0
   12.2401   -1.7014   21.6956 C   0  0  0  0  0  0  0  0  0  0  0  0
   13.5830   -1.4044   21.9258 C   0  0  0  0  0  0  0  0  0  0  0  0
   13.9359   -0.4871   22.9174 C   0  0  0  0  0  0  0  0  0  0  0  0
   12.9453    0.1289   23.6862 C   0  0  0  0  0  0  0  0  0  0  0  0
   11.5999   -0.1784   23.4698 C   0  0  0  0  0  0  0  0  0  0  0  0
    9.6365   -3.0906   24.1945 C   0  0  0  0  0  0  0  0  0  0  0  0
   11.0654   -3.1681   24.7380 C   0  0  0  0  0  0  0  0  0  0  0  0
   10.8016   -4.5801   25.2396 C   0  0  0  0  0  0  0  0  0  0  0  0
    9.3855   -4.5177   24.6866 C   0  0  0  0  0  0  0  0  0  0  0  0
  2  1  1  0
  2  3  1  1
  2 10  1  0
  3  4  1  0
  4  5  2  0
  5  6  1  0
  6  7  2  0
  7  8  1  0
  8  9  2  0
  9  4  1  0
 10 11  1  0
 11 12  1  0
 12 13  1  0
 13 10  1  0
M  END
>  <Hit>  (2) 
Mpro-x0072_0

>  <Receptor>  (2) 
Mpro-x0387_0

>  <SCORE>  (2) 
-7.0699300000000003

>  <SCORE.norm>  (2) 
-0.54384100000000002

>  <SCORE.heavy>  (2) 
13

>  <OrigSmiles>  (2) 
BrC(Cc1ccccc1)C1CCC1

>  <SuCOS_Score>  (2) 
0.49164406138659378

>  <Max_SuCOS_Score>  (2) 
0.49164406138659378

>  <Cum_SuCOS_Score>  (2) 
4.7809355457828264

>  <TransFSScore_50nM>  (2) 
0.070352999999999999

>  <TransFSScore_1uM>  (2) 
0.15254200000000001

>  <TransFSScore_10nM>  (2) 
0.0097839999999999993

>  <TransFSScore_200nM>  (2) 
0.11036700000000001

>  <TransFSScore>  (2) 
0.085761500000000004

>  <FeatureSteinScore>  (2) 
0.47383126623679256

$$$$
BrCC(CBr)(CCCOCc1ccccc1)C1CCC1
     RDKit          3D

 20 21  0  0  0  0  0  0  0  0999 V2000
    9.0905   -5.6320   26.6047 Br  0  0  0  0  0  0  0  0  0  0  0  0
    9.3193   -3.9948   27.6418 C   0  0  0  0  0  0  0  0  0  0  0  0
    9.1909   -2.6328   26.8769 C   0  0  0  0  0  0  0  0  0  0  0  0
   10.4160   -2.3499   25.9286 C   0  0  0  0  0  0  0  0  0  0  0  0
   10.8335   -3.6919   24.5781 Br  0  0  0  0  0  0  0  0  0  0  0  0
    7.8940   -2.7142   25.9899 C   0  0  0  0  0  0  0  0  0  0  0  0
    7.4470   -1.3940   25.3026 C   0  0  0  0  0  0  0  0  0  0  0  0
    7.9642   -1.2740   23.8672 C   0  0  0  0  0  0  0  0  0  0  0  0
    9.3496   -1.0037   23.8997 O   0  0  0  0  0  0  0  0  0  0  0  0
    9.8467   -0.9198   22.5813 C   0  0  0  0  0  0  0  0  0  0  0  0
   11.3439   -0.8277   22.6346 C   0  0  0  0  0  0  0  0  0  0  0  0
   12.1281   -1.5545   21.7256 C   0  0  0  0  0  0  0  0  0  0  0  0
   13.5209   -1.4635   21.7698 C   0  0  0  0  0  0  0  0  0  0  0  0
   14.1385   -0.6361   22.7104 C   0  0  0  0  0  0  0  0  0  0  0  0
   13.3636    0.1057   23.6056 C   0  0  0  0  0  0  0  0  0  0  0  0
   11.9698    0.0156   23.5660 C   0  0  0  0  0  0  0  0  0  0  0  0
    8.9488   -1.4726   27.9212 C   0  0  0  0  0  0  0  0  0  0  0  0
    9.9812   -1.2630   29.0369 C   0  0  0  0  0  0  0  0  0  0  0  0
   10.2076    0.1666   28.5710 C   0  0  0  0  0  0  0  0  0  0  0  0
    9.2089   -0.0356   27.4422 C   0  0  0  0  0  0  0  0  0  0  0  0
  1  2  1  0
  2  3  1  0
  3  4  1  0
  3  6  1  0
  3 17  1  0
  4  5  1  0
  6  7  1  0
  7  8  1  0
  8  9  1  0
  9 10  1  0
 10 11  1  0
 11 12  2  0
 12 13  1  0
 13 14  2  0
 14 15  1  0
 15 16  2  0
 16 11  1  0
 17 18  1  0
 18 19  1  0
 19 20  1  0
 20 17  1  0
M  END
>  <Hit>  (3) 
Mpro-x0072_0

>  <Receptor>  (3) 
Mpro-x0387_0

>  <SCORE>  (3) 
-6.4911899999999996

>  <SCORE.norm>  (3) 
-0.32455899999999999

>  <SCORE.heavy>  (3) 
20

>  <OrigSmiles>  (3) 
BrCC(CBr)(CCCOCc1ccccc1)C1CCC1

>  <SuCOS_Score>  (3) 
0.49535644980209681

>  <Max_SuCOS_Score>  (3) 
0.51961891579077046

>  <Cum_SuCOS_Score>  (3) 
5.2795457792266562

>  <TransFSScore_50nM>  (3) 
0.0092309999999999996

>  <TransFSScore_1uM>  (3) 
0.073298000000000002

>  <TransFSScore_10nM>  (3) 
0.054900999999999998

>  <TransFSScore_200nM>  (3) 
0.024289000000000002

>  <TransFSScore>  (3) 
0.04042975

>  <FeatureSteinScore>  (3) 
0.25283980556115454

$$$$
BrCC(CBr)(CCOCc1ccccc1)C1CCC1
     RDKit          3D

 19 20  0  0  0  0  0  0  0  0999 V2000
    5.4083   -5.8195   24.7084 Br  0  0  0  0  0  0  0  0  0  0  0  0
    7.2696   -5.4435   25.1543 C   0  0  0  0  0  0  0  0  0  0  0  0
    8.1210   -4.8935   23.9696 C   0  0  0  0  0  0  0  0  0  0  0  0
    8.3141   -5.9785   22.8583 C   0  0  0  0  0  0  0  0  0  0  0  0
    6.7511   -6.3943   21.7623 Br  0  0  0  0  0  0  0  0  0  0  0  0
    7.4145   -3.6046   23.3978 C   0  0  0  0  0  0  0  0  0  0  0  0
    8.1285   -2.8865   22.2394 C   0  0  0  0  0  0  0  0  0  0  0  0
    9.3685   -2.3688   22.6865 O   0  0  0  0  0  0  0  0  0  0  0  0
   10.0041   -1.6332   21.6615 C   0  0  0  0  0  0  0  0  0  0  0  0
   11.3234   -1.1332   22.1721 C   0  0  0  0  0  0  0  0  0  0  0  0
   12.5189   -1.6232   21.6247 C   0  0  0  0  0  0  0  0  0  0  0  0
   13.7496   -1.1844   22.1181 C   0  0  0  0  0  0  0  0  0  0  0  0
   13.7943   -0.2624   23.1663 C   0  0  0  0  0  0  0  0  0  0  0  0
   12.6080    0.2196   23.7253 C   0  0  0  0  0  0  0  0  0  0  0  0
   11.3749   -0.2188   23.2360 C   0  0  0  0  0  0  0  0  0  0  0  0
    9.5577   -4.5579   24.5329 C   0  0  0  0  0  0  0  0  0  0  0  0
   10.2776   -5.6421   25.3430 C   0  0  0  0  0  0  0  0  0  0  0  0
   10.3140   -4.7139   26.5507 C   0  0  0  0  0  0  0  0  0  0  0  0
    9.6283   -3.6190   25.7434 C   0  0  0  0  0  0  0  0  0  0  0  0
  1  2  1  0
  2  3  1  0
  3  4  1  0
  3  6  1  0
  3 16  1  0
  4  5  1  0
  6  7  1  0
  7  8  1  0
  8  9  1  0
  9 10  1  0
 10 11  2  0
 11 12  1  0
 12 13  2  0
 13 14  1  0
 14 15  2  0
 15 10  1  0
 16 17  1  0
 17 18  1  0
 18 19  1  0
 19 16  1  0
M  END
>  <Hit>  (4) 
Mpro-x0072_0

>  <Receptor>  (4) 
Mpro-x0387_0

>  <SCORE>  (4) 
-10.486000000000001

>  <SCORE.norm>  (4) 
-0.551894

>  <SCORE.heavy>  (4) 
19

>  <OrigSmiles>  (4) 
BrCC(CBr)(CCOCc1ccccc1)C1CCC1

>  <SuCOS_Score>  (4) 
0.48398553634213498

>  <Max_SuCOS_Score>  (4) 
0.66185792800358789

>  <Cum_SuCOS_Score>  (4) 
5.2883815300478121

>  <TransFSScore_50nM>  (4) 
0.021597999999999999

>  <TransFSScore_1uM>  (4) 
0.28941299999999998

>  <TransFSScore_10nM>  (4) 
0.026239999999999999

>  <TransFSScore_200nM>  (4) 
0.16812199999999999

>  <TransFSScore>  (4) 
0.12634324999999999

>  <FeatureSteinScore>  (4) 
0.58454910529511506

$$$$
BrCC(CBr)(COCc1ccccc1)C1CCC1
     RDKit          3D

 18 19  0  0  0  0  0  0  0  0999 V2000
    5.3925   -2.4761   18.9882 Br  0  0  0  0  0  0  0  0  0  0  0  0
    5.5025   -0.8590   20.0639 C   0  0  0  0  0  0  0  0  0  0  0  0
    6.9366   -0.2920   20.3269 C   0  0  0  0  0  0  0  0  0  0  0  0
    7.6018   -0.0380   18.9394 C   0  0  0  0  0  0  0  0  0  0  0  0
    6.5199    1.0045   17.6991 Br  0  0  0  0  0  0  0  0  0  0  0  0
    7.7790   -1.3928   21.0340 C   0  0  0  0  0  0  0  0  0  0  0  0
    9.0719   -0.9031   21.3433 O   0  0  0  0  0  0  0  0  0  0  0  0
    9.8575   -1.9111   21.9483 C   0  0  0  0  0  0  0  0  0  0  0  0
   11.2168   -1.3658   22.2908 C   0  0  0  0  0  0  0  0  0  0  0  0
   12.3456   -1.7591   21.5563 C   0  0  0  0  0  0  0  0  0  0  0  0
   13.6104   -1.2793   21.9020 C   0  0  0  0  0  0  0  0  0  0  0  0
   13.7566   -0.4079   22.9837 C   0  0  0  0  0  0  0  0  0  0  0  0
   12.6379   -0.0171   23.7235 C   0  0  0  0  0  0  0  0  0  0  0  0
   11.3711   -0.4976   23.3826 C   0  0  0  0  0  0  0  0  0  0  0  0
    7.0076    1.0505   21.1614 C   0  0  0  0  0  0  0  0  0  0  0  0
    6.0991    2.2202   20.7615 C   0  0  0  0  0  0  0  0  0  0  0  0
    5.5161    2.2504   22.1676 C   0  0  0  0  0  0  0  0  0  0  0  0
    6.3946    1.0739   22.5675 C   0  0  0  0  0  0  0  0  0  0  0  0
  1  2  1  0
  2  3  1  0
  3  4  1  0
  3  6  1  0
  3 15  1  0
  4  5  1  0
  6  7  1  0
  7  8  1  0
  8  9  1  0
  9 10  2  0
 10 11  1  0
 11 12  2  0
 12 13  1  0
 13 14  2  0
 14  9  1  0
 15 16  1  0
 16 17  1  0
 17 18  1  0
 18 15  1  0
M  END
>  <Hit>  (5) 
Mpro-x0072_0

>  <Receptor>  (5) 
Mpro-x0387_0

>  <SCORE>  (5) 
-11.2669

>  <SCORE.norm>  (5) 
-0.62593699999999997

>  <SCORE.heavy>  (5) 
18

>  <OrigSmiles>  (5) 
BrCC(CBr)(COCc1ccccc1)C1CCC1

>  <SuCOS_Score>  (5) 
0.30303825932027217

>  <Max_SuCOS_Score>  (5) 
0.43999193012720211

>  <Cum_SuCOS_Score>  (5) 
5.7771079417367979

>  <TransFSScore_50nM>  (5) 
0.049128999999999999

>  <TransFSScore_1uM>  (5) 
0.47803299999999999

>  <TransFSScore_10nM>  (5) 
0.047641000000000003

>  <TransFSScore_200nM>  (5) 
0.078980999999999996

>  <TransFSScore>  (5) 
0.16344600000000001

>  <FeatureSteinScore>  (5) 
0.40346702853593502

$$$$
BrCC(CCCOCc1ccccc1)C1CCC1
     RDKit          3D

 18 19  0  0  0  0  0  0  0  0999 V2000
    5.3260   -2.5626   19.0149 Br  0  0  0  0  0  0  0  0  0  0  0  0
    5.0497   -0.7733   19.7217 C   0  0  0  0  0  0  0  0  0  0  0  0
    5.3672    0.3197   18.6621 C   0  0  2  0  0  0  0  0  0  0  0  0
    6.8807    0.3818   18.3369 C   0  0  0  0  0  0  0  0  0  0  0  0
    7.7526    0.6952   19.5620 C   0  0  0  0  0  0  0  0  0  0  0  0
    8.3897   -0.5769   20.1306 C   0  0  0  0  0  0  0  0  0  0  0  0
    9.3905   -0.2379   21.0720 O   0  0  0  0  0  0  0  0  0  0  0  0
   10.0606   -1.3956   21.5252 C   0  0  0  0  0  0  0  0  0  0  0  0
   11.3836   -0.9922   22.1074 C   0  0  0  0  0  0  0  0  0  0  0  0
   12.5775   -1.4904   21.5639 C   0  0  0  0  0  0  0  0  0  0  0  0
   13.8061   -1.1387   22.1270 C   0  0  0  0  0  0  0  0  0  0  0  0
   13.8502   -0.2970   23.2407 C   0  0  0  0  0  0  0  0  0  0  0  0
   12.6647    0.1918   23.7957 C   0  0  0  0  0  0  0  0  0  0  0  0
   11.4334   -0.1596   23.2365 C   0  0  0  0  0  0  0  0  0  0  0  0
    4.8776    1.7468   19.0519 C   0  0  0  0  0  0  0  0  0  0  0  0
    5.1794    2.2049   20.4800 C   0  0  0  0  0  0  0  0  0  0  0  0
    3.6837    2.3305   20.7492 C   0  0  0  0  0  0  0  0  0  0  0  0
    3.3791    1.8794   19.3249 C   0  0  0  0  0  0  0  0  0  0  0  0
  1  2  1  0
  3  2  1  1
  3  4  1  0
  3 15  1  0
  4  5  1  0
  5  6  1  0
  6  7  1  0
  7  8  1  0
  8  9  1  0
  9 10  2  0
 10 11  1  0
 11 12  2  0
 12 13  1  0
 13 14  2  0
 14  9  1  0
 15 16  1  0
 16 17  1  0
 17 18  1  0
 18 15  1  0
M  END
>  <Hit>  (6) 
Mpro-x0072_0

>  <Receptor>  (6) 
Mpro-x0387_0

>  <SCORE>  (6) 
-11.2209

>  <SCORE.norm>  (6) 
-0.62338099999999996

>  <SCORE.heavy>  (6) 
18

>  <OrigSmiles>  (6) 
BrCC(CCCOCc1ccccc1)C1CCC1

>  <SuCOS_Score>  (6) 
0.28899449834108926

>  <Max_SuCOS_Score>  (6) 
0.47418261179932603

>  <Cum_SuCOS_Score>  (6) 
5.5883482668174871

>  <TransFSScore_50nM>  (6) 
0.0081580000000000003

>  <TransFSScore_1uM>  (6) 
0.39364399999999999

>  <TransFSScore_10nM>  (6) 
0.039586000000000003

>  <TransFSScore_200nM>  (6) 
0.19601499999999999

>  <TransFSScore>  (6) 
0.15935074999999999

>  <FeatureSteinScore>  (6) 
0.25067925353435982

$$$$
BrCC(CCOCc1ccccc1)C1CCC1
     RDKit          3D

 17 18  0  0  0  0  0  0  0  0999 V2000
    8.8492    1.0973   21.2806 Br  0  0  0  0  0  0  0  0  0  0  0  0
    7.9094   -0.1787   20.1567 C   0  0  0  0  0  0  0  0  0  0  0  0
    6.5209   -0.5362   20.7299 C   0  0  2  0  0  0  0  0  0  0  0  0
    6.5818   -1.8294   21.5931 C   0  0  0  0  0  0  0  0  0  0  0  0
    7.3978   -1.7353   22.8892 C   0  0  0  0  0  0  0  0  0  0  0  0
    8.7667   -1.5479   22.5809 O   0  0  0  0  0  0  0  0  0  0  0  0
    9.5336   -1.4388   23.7622 C   0  0  0  0  0  0  0  0  0  0  0  0
   10.9638   -1.1802   23.3886 C   0  0  0  0  0  0  0  0  0  0  0  0
   11.5725   -1.9357   22.3748 C   0  0  0  0  0  0  0  0  0  0  0  0
   12.9012   -1.6932   22.0195 C   0  0  0  0  0  0  0  0  0  0  0  0
   13.6249   -0.6870   22.6634 C   0  0  0  0  0  0  0  0  0  0  0  0
   13.0193    0.0821   23.6603 C   0  0  0  0  0  0  0  0  0  0  0  0
   11.6908   -0.1588   24.0200 C   0  0  0  0  0  0  0  0  0  0  0  0
    5.4019   -0.4193   19.6424 C   0  0  0  0  0  0  0  0  0  0  0  0
    5.5687   -1.1969   18.3346 C   0  0  0  0  0  0  0  0  0  0  0  0
    5.4129    0.1009   17.5502 C   0  0  0  0  0  0  0  0  0  0  0  0
    5.2998    0.8858   18.8518 C   0  0  0  0  0  0  0  0  0  0  0  0
  1  2  1  0
  3  2  1  6
  3  4  1  0
  3 14  1  0
  4  5  1  0
  5  6  1  0
  6  7  1  0
  7  8  1  0
  8  9  2  0
  9 10  1  0
 10 11  2  0
 11 12  1  0
 12 13  2  0
 13  8  1  0
 14 15  1  0
 15 16  1  0
 16 17  1  0
 17 14  1  0
M  END
>  <Hit>  (7) 
Mpro-x0072_0

>  <Receptor>  (7) 
Mpro-x0387_0

>  <SCORE>  (7) 
-10.425000000000001

>  <SCORE.norm>  (7) 
-0.61323399999999995

>  <SCORE.heavy>  (7) 
17

>  <OrigSmiles>  (7) 
BrCC(CCOCc1ccccc1)C1CCC1

>  <SuCOS_Score>  (7) 
0.41082051439563072

>  <Max_SuCOS_Score>  (7) 
0.47703970507642324

>  <Cum_SuCOS_Score>  (7) 
6.3328708785496319

>  <TransFSScore_50nM>  (7) 
0.070250999999999994

>  <TransFSScore_1uM>  (7) 
0.40215099999999998

>  <TransFSScore_10nM>  (7) 
0.042291000000000002

>  <TransFSScore_200nM>  (7) 
0.17899399999999999

>  <TransFSScore>  (7) 
0.17342174999999999

>  <FeatureSteinScore>  (7) 
0.45467452291542199

$$$$
BrCC(COCc1ccccc1)C1CCC1
     RDKit          3D

 16 17  0  0  0  0  0  0  0  0999 V2000
    6.5743   -6.4806   21.6836 Br  0  0  0  0  0  0  0  0  0  0  0  0
    5.5905   -4.8404   21.3414 C   0  0  0  0  0  0  0  0  0  0  0  0
    6.5357   -3.6248   21.2348 C   0  0  2  0  0  0  0  0  0  0  0  0
    7.2285   -3.3867   22.6008 C   0  0  0  0  0  0  0  0  0  0  0  0
    8.3976   -2.6028   22.4573 O   0  0  0  0  0  0  0  0  0  0  0  0
    9.0420   -2.4334   23.7030 C   0  0  0  0  0  0  0  0  0  0  0  0
   10.3248   -1.6860   23.4851 C   0  0  0  0  0  0  0  0  0  0  0  0
   11.2727   -2.1654   22.5685 C   0  0  0  0  0  0  0  0  0  0  0  0
   12.4817   -1.4894   22.3898 C   0  0  0  0  0  0  0  0  0  0  0  0
   12.7559   -0.3382   23.1317 C   0  0  0  0  0  0  0  0  0  0  0  0
   11.8226    0.1370   24.0565 C   0  0  0  0  0  0  0  0  0  0  0  0
   10.6127   -0.5374   24.2392 C   0  0  0  0  0  0  0  0  0  0  0  0
    5.7392   -2.3657   20.7949 C   0  0  0  0  0  0  0  0  0  0  0  0
    6.5794   -1.1009   20.5909 C   0  0  0  0  0  0  0  0  0  0  0  0
    6.1535   -1.0448   19.1325 C   0  0  0  0  0  0  0  0  0  0  0  0
    5.3615   -2.3300   19.3101 C   0  0  0  0  0  0  0  0  0  0  0  0
  1  2  1  0
  3  2  1  1
  3  4  1  0
  3 13  1  0
  4  5  1  0
  5  6  1  0
  6  7  1  0
  7  8  2  0
  8  9  1  0
  9 10  2  0
 10 11  1  0
 11 12  2  0
 12  7  1  0
 13 14  1  0
 14 15  1  0
 15 16  1  0
 16 13  1  0
M  END
>  <Hit>  (8) 
Mpro-x0072_0

>  <Receptor>  (8) 
Mpro-x0387_0

>  <SCORE>  (8) 
-8.9536899999999999

>  <SCORE.norm>  (8) 
-0.55960600000000005

>  <SCORE.heavy>  (8) 
16

>  <OrigSmiles>  (8) 
BrCC(COCc1ccccc1)C1CCC1

>  <SuCOS_Score>  (8) 
0.38583205539850152

>  <Max_SuCOS_Score>  (8) 
0.38583205539850152

>  <Cum_SuCOS_Score>  (8) 
4.6653245491451836

>  <TransFSScore_50nM>  (8) 
0.067160999999999998

>  <TransFSScore_1uM>  (8) 
0.32370300000000002

>  <TransFSScore_10nM>  (8) 
0.065016000000000004

>  <TransFSScore_200nM>  (8) 
0.19843

>  <TransFSScore>  (8) 
0.16357749999999999

>  <FeatureSteinScore>  (8) 
0.30701264142464729

$$$$
BrCC(COc1ccccc1)C1CCC1
     RDKit          3D

 15 16  0  0  0  0  0  0  0  0999 V2000
   10.5275   -0.0621   29.6159 Br  0  0  0  0  0  0  0  0  0  0  0  0
    9.2715   -1.3415   28.9075 C   0  0  0  0  0  0  0  0  0  0  0  0
    9.8776   -1.9558   27.6499 C   0  0  2  0  0  0  0  0  0  0  0  0
    9.7812   -0.8062   26.6121 C   0  0  0  0  0  0  0  0  0  0  0  0
   10.5213   -0.9157   25.5701 O   0  0  0  0  0  0  0  0  0  0  0  0
   11.2704   -1.0265   24.5154 C   0  0  0  0  0  0  0  0  0  0  0  0
   11.0746   -2.0704   23.5917 C   0  0  0  0  0  0  0  0  0  0  0  0
   11.8664   -2.1846   22.4803 C   0  0  0  0  0  0  0  0  0  0  0  0
   12.8676   -1.2757   22.2526 C   0  0  0  0  0  0  0  0  0  0  0  0
   13.0913   -0.2392   23.1334 C   0  0  0  0  0  0  0  0  0  0  0  0
   12.3064   -0.1075   24.2557 C   0  0  0  0  0  0  0  0  0  0  0  0
    9.0387   -3.1110   27.2087 C   0  0  0  0  0  0  0  0  0  0  0  0
    9.0572   -4.3079   28.1335 C   0  0  0  0  0  0  0  0  0  0  0  0
   10.3020   -4.7770   27.4128 C   0  0  0  0  0  0  0  0  0  0  0  0
    9.7332   -4.0340   26.1948 C   0  0  0  0  0  0  0  0  0  0  0  0
  1  2  1  0
  3  2  1  1
  3  4  1  0
  3 12  1  0
  4  5  1  0
  5  6  1  0
  6  7  2  0
  7  8  1  0
  8  9  2  0
  9 10  1  0
 10 11  2  0
 11  6  1  0
 12 13  1  0
 13 14  1  0
 14 15  1  0
 15 12  1  0
M  END
>  <Hit>  (9) 
Mpro-x0072_0

>  <Receptor>  (9) 
Mpro-x0387_0

>  <SCORE>  (9) 
-11.4452

>  <SCORE.norm>  (9) 
-0.76301600000000003

>  <SCORE.heavy>  (9) 
15

>  <OrigSmiles>  (9) 
BrCC(COc1ccccc1)C1CCC1

>  <SuCOS_Score>  (9) 
0.36181114727446156

>  <Max_SuCOS_Score>  (9) 
0.46965536863314034

>  <Cum_SuCOS_Score>  (9) 
3.9216252583359159

>  <TransFSScore_50nM>  (9) 
0.029812000000000002

>  <TransFSScore_1uM>  (9) 
0.34890100000000002

>  <TransFSScore_10nM>  (9) 
0.059444999999999998

>  <TransFSScore_200nM>  (9) 
0.033003999999999999

>  <TransFSScore>  (9) 
0.11779050000000001

>  <FeatureSteinScore>  (9) 
0.17991070358875652

$$$$
BrCC(Cc1ccccc1)C1CCC1
     RDKit          3D

 14 15  0  0  0  0  0  0  0  0999 V2000
    7.6933   -5.3127   21.9706 Br  0  0  0  0  0  0  0  0  0  0  0  0
    7.8944   -3.3868   22.1436 C   0  0  0  0  0  0  0  0  0  0  0  0
    9.3117   -2.9916   22.6446 C   0  0  1  0  0  0  0  0  0  0  0  0
    9.5699   -1.5078   22.2867 C   0  0  0  0  0  0  0  0  0  0  0  0
   11.0071   -1.1235   22.4830 C   0  0  0  0  0  0  0  0  0  0  0  0
   12.0098   -1.7392   21.7188 C   0  0  0  0  0  0  0  0  0  0  0  0
   13.3513   -1.4276   21.9432 C   0  0  0  0  0  0  0  0  0  0  0  0
   13.6987   -0.5070   22.9346 C   0  0  0  0  0  0  0  0  0  0  0  0
   12.7047    0.1059   23.7012 C   0  0  0  0  0  0  0  0  0  0  0  0
   11.3616   -0.1979   23.4758 C   0  0  0  0  0  0  0  0  0  0  0  0
    9.4491   -3.2472   24.1777 C   0  0  0  0  0  0  0  0  0  0  0  0
   10.8696   -3.1067   24.7373 C   0  0  0  0  0  0  0  0  0  0  0  0
   10.8465   -4.5571   25.1887 C   0  0  0  0  0  0  0  0  0  0  0  0
    9.4540   -4.7202   24.6027 C   0  0  0  0  0  0  0  0  0  0  0  0
  1  2  1  0
  3  2  1  1
  3  4  1  0
  3 11  1  0
  4  5  1  0
  5  6  2  0
  6  7  1  0
  7  8  2  0
  8  9  1  0
  9 10  2  0
 10  5  1  0
 11 12  1  0
 12 13  1  0
 13 14  1  0
 14 11  1  0
M  END
>  <Hit>  (10) 
Mpro-x0072_0

>  <Receptor>  (10) 
Mpro-x0387_0

>  <SCORE>  (10) 
-9.2652000000000001

>  <SCORE.norm>  (10) 
-0.66180000000000005

>  <SCORE.heavy>  (10) 
14

>  <OrigSmiles>  (10) 
BrCC(Cc1ccccc1)C1CCC1

>  <SuCOS_Score>  (10) 
0.51041960529961239

>  <Max_SuCOS_Score>  (10) 
0.51041960529961239

>  <Cum_SuCOS_Score>  (10) 
4.8962509429485674

>  <TransFSScore_50nM>  (10) 
0.28131899999999999

>  <TransFSScore_1uM>  (10) 
0.38896599999999998

>  <TransFSScore_10nM>  (10) 
0.020747999999999999

>  <TransFSScore_200nM>  (10) 
0.14968400000000001

>  <TransFSScore>  (10) 
0.21017925000000001

>  <FeatureSteinScore>  (10) 
0.49835626770648273

$$$$
BrCC(NCCCOCc1ccccc1)C1CCC1
     RDKit          3D

 19 20  0  0  0  0  0  0  0  0999 V2000
    1.6010    1.8989   20.0741 Br  0  0  0  0  0  0  0  0  0  0  0  0
    3.4240    2.3691   20.5904 C   0  0  0  0  0  0  0  0  0  0  0  0
    4.5161    1.3426   20.1667 C   0  0  2  0  0  0  0  0  0  0  0  0
    5.8535    1.7659   20.6315 N   0  0  0  0  0  0  0  0  0  0  0  0
    6.7540    0.6265   20.8770 C   0  0  0  0  0  0  0  0  0  0  0  0
    8.2141    1.0921   20.8462 C   0  0  0  0  0  0  0  0  0  0  0  0
    9.1971   -0.0515   21.1179 C   0  0  0  0  0  0  0  0  0  0  0  0
    9.0116   -0.5405   22.4316 O   0  0  0  0  0  0  0  0  0  0  0  0
    9.8593   -1.6460   22.6731 C   0  0  0  0  0  0  0  0  0  0  0  0
   11.2913   -1.1971   22.7779 C   0  0  0  0  0  0  0  0  0  0  0  0
   12.2767   -1.7719   21.9611 C   0  0  0  0  0  0  0  0  0  0  0  0
   13.6085   -1.3686   22.0784 C   0  0  0  0  0  0  0  0  0  0  0  0
   13.9645   -0.3928   23.0122 C   0  0  0  0  0  0  0  0  0  0  0  0
   12.9890    0.1803   23.8319 C   0  0  0  0  0  0  0  0  0  0  0  0
   11.6558   -0.2223   23.7193 C   0  0  0  0  0  0  0  0  0  0  0  0
    4.5576    1.0129   18.6391 C   0  0  0  0  0  0  0  0  0  0  0  0
    5.2377    2.0728   17.7713 C   0  0  0  0  0  0  0  0  0  0  0  0
    6.2497    1.0352   17.3026 C   0  0  0  0  0  0  0  0  0  0  0  0
    5.5666   -0.0283   18.1535 C   0  0  0  0  0  0  0  0  0  0  0  0
  1  2  1  0
  3  2  1  6
  3  4  1  0
  3 16  1  0
  4  5  1  0
  5  6  1  0
  6  7  1  0
  7  8  1  0
  8  9  1  0
  9 10  1  0
 10 11  2  0
 11 12  1  0
 12 13  2  0
 13 14  1  0
 14 15  2  0
 15 10  1  0
 16 17  1  0
 17 18  1  0
 18 19  1  0
 19 16  1  0
M  END
>  <Hit>  (11) 
Mpro-x0072_0

>  <Receptor>  (11) 
Mpro-x0387_0

>  <SCORE>  (11) 
-10.5745

>  <SCORE.norm>  (11) 
-0.55654999999999999

>  <SCORE.heavy>  (11) 
19

>  <OrigSmiles>  (11) 
BrCC(NCCCOCc1ccccc1)C1CCC1

>  <SuCOS_Score>  (11) 
0.35964453016892073

>  <Max_SuCOS_Score>  (11) 
0.46497965313177536

>  <Cum_SuCOS_Score>  (11) 
6.0101244914817622

>  <TransFSScore_50nM>  (11) 
0.024097

>  <TransFSScore_1uM>  (11) 
0.68060799999999999

>  <TransFSScore_10nM>  (11) 
0.19786400000000001

>  <TransFSScore_200nM>  (11) 
0.26429799999999998

>  <TransFSScore>  (11) 
0.29171675000000002

>  <FeatureSteinScore>  (11) 
0.26185459323294213

$$$$
BrCC(NCCOCc1ccccc1)C1CCC1
     RDKit          3D

 18 19  0  0  0  0  0  0  0  0999 V2000
    9.1541    1.1721   21.2214 Br  0  0  0  0  0  0  0  0  0  0  0  0
    7.2138    1.2176   21.2793 C   0  0  0  0  0  0  0  0  0  0  0  0
    6.5628   -0.0232   20.6143 C   0  0  2  0  0  0  0  0  0  0  0  0
    7.0531   -1.2765   21.2445 N   0  0  0  0  0  0  0  0  0  0  0  0
    6.7091   -1.4109   22.6745 C   0  0  0  0  0  0  0  0  0  0  0  0
    7.8362   -2.1009   23.4568 C   0  0  0  0  0  0  0  0  0  0  0  0
    9.0958   -1.5377   23.1346 O   0  0  0  0  0  0  0  0  0  0  0  0
   10.1334   -2.1288   23.8940 C   0  0  0  0  0  0  0  0  0  0  0  0
   11.4669   -1.5615   23.4891 C   0  0  0  0  0  0  0  0  0  0  0  0
   12.2734   -2.2362   22.5600 C   0  0  0  0  0  0  0  0  0  0  0  0
   13.5195   -1.7163   22.2036 C   0  0  0  0  0  0  0  0  0  0  0  0
   13.9683   -0.5224   22.7728 C   0  0  0  0  0  0  0  0  0  0  0  0
   13.1717    0.1533   23.7006 C   0  0  0  0  0  0  0  0  0  0  0  0
   11.9254   -0.3650   24.0616 C   0  0  0  0  0  0  0  0  0  0  0  0
    6.7790   -0.0146   19.0698 C   0  0  0  0  0  0  0  0  0  0  0  0
    6.0664   -1.1337   18.3044 C   0  0  0  0  0  0  0  0  0  0  0  0
    5.2968   -0.0993   17.4987 C   0  0  0  0  0  0  0  0  0  0  0  0
    5.9502    1.0164   18.2988 C   0  0  0  0  0  0  0  0  0  0  0  0
  1  2  1  0
  3  2  1  1
  3  4  1  0
  3 15  1  0
  4  5  1  0
  5  6  1  0
  6  7  1  0
  7  8  1  0
  8  9  1  0
  9 10  2  0
 10 11  1  0
 11 12  2  0
 12 13  1  0
 13 14  2  0
 14  9  1  0
 15 16  1  0
 16 17  1  0
 17 18  1  0
 18 15  1  0
M  END
>  <Hit>  (12) 
Mpro-x0072_0

>  <Receptor>  (12) 
Mpro-x0387_0

>  <SCORE>  (12) 
-11.463200000000001

>  <SCORE.norm>  (12) 
-0.63684499999999999

>  <SCORE.heavy>  (12) 
18

>  <OrigSmiles>  (12) 
BrCC(NCCOCc1ccccc1)C1CCC1

>  <SuCOS_Score>  (12) 
0.34052451334316586

>  <Max_SuCOS_Score>  (12) 
0.45758964065468166

>  <Cum_SuCOS_Score>  (12) 
5.9926586208446997

>  <TransFSScore_50nM>  (12) 
0.048534000000000001

>  <TransFSScore_1uM>  (12) 
0.75350700000000004

>  <TransFSScore_10nM>  (12) 
0.034993999999999997

>  <TransFSScore_200nM>  (12) 
0.38329000000000002

>  <TransFSScore>  (12) 
0.30508124999999997

>  <FeatureSteinScore>  (12) 
0.30595252349983826

$$$$
BrCC(NCc1ccccc1)C1CCC1
     RDKit          3D

 15 16  0  0  0  0  0  0  0  0999 V2000
    5.5296   -2.7159   21.8453 Br  0  0  0  0  0  0  0  0  0  0  0  0
    7.4369   -2.5550   21.5193 C   0  0  0  0  0  0  0  0  0  0  0  0
    7.8481   -1.1383   21.0411 C   0  0  1  0  0  0  0  0  0  0  0  0
    9.3178   -0.9502   21.1549 N   0  0  0  0  0  0  0  0  0  0  0  0
    9.8482   -1.1159   22.5218 C   0  0  0  0  0  0  0  0  0  0  0  0
   11.3473   -0.9680   22.5242 C   0  0  0  0  0  0  0  0  0  0  0  0
   12.1321   -1.7283   21.6439 C   0  0  0  0  0  0  0  0  0  0  0  0
   13.5236   -1.6148   21.6668 C   0  0  0  0  0  0  0  0  0  0  0  0
   14.1400   -0.7495   22.5737 C   0  0  0  0  0  0  0  0  0  0  0  0
   13.3656    0.0012   23.4617 C   0  0  0  0  0  0  0  0  0  0  0  0
   11.9731   -0.1114   23.4433 C   0  0  0  0  0  0  0  0  0  0  0  0
    7.3261   -0.8554   19.5990 C   0  0  0  0  0  0  0  0  0  0  0  0
    5.8084   -0.6967   19.4717 C   0  0  0  0  0  0  0  0  0  0  0  0
    5.9959    0.7100   18.9257 C   0  0  0  0  0  0  0  0  0  0  0  0
    7.4998    0.5862   19.1115 C   0  0  0  0  0  0  0  0  0  0  0  0
  1  2  1  0
  3  2  1  6
  3  4  1  0
  3 12  1  0
  4  5  1  0
  5  6  1  0
  6  7  2  0
  7  8  1  0
  8  9  2  0
  9 10  1  0
 10 11  2  0
 11  6  1  0
 12 13  1  0
 13 14  1  0
 14 15  1  0
 15 12  1  0
M  END
>  <Hit>  (13) 
Mpro-x0072_0

>  <Receptor>  (13) 
Mpro-x0387_0

>  <SCORE>  (13) 
-11.177099999999999

>  <SCORE.norm>  (13) 
-0.74513799999999997

>  <SCORE.heavy>  (13) 
15

>  <OrigSmiles>  (13) 
BrCC(NCc1ccccc1)C1CCC1

>  <SuCOS_Score>  (13) 
0.2916910739416757

>  <Max_SuCOS_Score>  (13) 
0.3921098472422434

>  <Cum_SuCOS_Score>  (13) 
5.0036375128254722

>  <TransFSScore_50nM>  (13) 
0.0032919999999999998

>  <TransFSScore_1uM>  (13) 
0.50491799999999998

>  <TransFSScore_10nM>  (13) 
0.0036029999999999999

>  <TransFSScore_200nM>  (13) 
0.035930999999999998

>  <TransFSScore>  (13) 
0.136936

>  <FeatureSteinScore>  (13) 
0.36888146894705204

$$$$
BrCC(OC1CCC1)c1ccccc1
     RDKit          3D

 14 15  0  0  0  0  0  0  0  0999 V2000
    9.1595   -0.9100   21.2958 Br  0  0  0  0  0  0  0  0  0  0  0  0
    9.6364   -2.5222   22.2733 C   0  0  0  0  0  0  0  0  0  0  0  0
   10.4127   -2.2270   23.5601 C   0  0  1  0  0  0  0  0  0  0  0  0
   10.7773   -3.4513   24.1756 O   0  0  0  0  0  0  0  0  0  0  0  0
    9.6318   -4.1103   24.6819 C   0  0  0  0  0  0  0  0  0  0  0  0
    9.9693   -5.4728   25.2805 C   0  0  0  0  0  0  0  0  0  0  0  0
    9.6124   -4.9529   26.6649 C   0  0  0  0  0  0  0  0  0  0  0  0
    9.2749   -3.5933   26.0700 C   0  0  0  0  0  0  0  0  0  0  0  0
   11.6230   -1.3755   23.2432 C   0  0  0  0  0  0  0  0  0  0  0  0
   12.5829   -1.8532   22.3363 C   0  0  0  0  0  0  0  0  0  0  0  0
   13.7301   -1.1064   22.0663 C   0  0  0  0  0  0  0  0  0  0  0  0
   13.9311    0.1201   22.7021 C   0  0  0  0  0  0  0  0  0  0  0  0
   12.9872    0.5998   23.6124 C   0  0  0  0  0  0  0  0  0  0  0  0
   11.8403   -0.1456   23.8892 C   0  0  0  0  0  0  0  0  0  0  0  0
  1  2  1  0
  3  2  1  6
  3  4  1  0
  3  9  1  0
  4  5  1  0
  5  6  1  0
  6  7  1  0
  7  8  1  0
  8  5  1  0
  9 10  2  0
 10 11  1  0
 11 12  2  0
 12 13  1  0
 13 14  2  0
 14  9  1  0
M  END
>  <Hit>  (14) 
Mpro-x0072_0

>  <Receptor>  (14) 
Mpro-x0305_0

>  <SCORE>  (14) 
-10.805899999999999

>  <SCORE.norm>  (14) 
-0.77184799999999998

>  <SCORE.heavy>  (14) 
14

>  <OrigSmiles>  (14) 
BrCC(OC1CCC1)c1ccccc1

>  <SuCOS_Score>  (14) 
0.56552713920967101

>  <Max_SuCOS_Score>  (14) 
0.56699870158474619

>  <Cum_SuCOS_Score>  (14) 
5.454102769822625

>  <TransFSScore_50nM>  (14) 
0.020469999999999999

>  <TransFSScore_1uM>  (14) 
0.26917200000000002

>  <TransFSScore_10nM>  (14) 
0.050762000000000002

>  <TransFSScore_200nM>  (14) 
0.25969199999999998

>  <TransFSScore>  (14) 
0.15002399999999999

>  <FeatureSteinScore>  (14) 
0.46424072233704533

$$$$
BrCC1CCCN(Cc2ccsc2Br)C1
     RDKit          3D

 15 16  0  0  0  0  0  0  0  0999 V2000
    5.4457   -5.6854   23.3936 Br  0  0  0  0  0  0  0  0  0  0  0  0
    6.8611   -4.9119   22.3113 C   0  0  0  0  0  0  0  0  0  0  0  0
    7.7951   -4.0146   23.1435 C   0  0  1  0  0  0  0  0  0  0  0  0
    8.5390   -4.8462   24.2104 C   0  0  0  0  0  0  0  0  0  0  0  0
    9.8900   -4.2662   24.6120 C   0  0  0  0  0  0  0  0  0  0  0  0
    9.9003   -2.7656   24.4180 C   0  0  0  0  0  0  0  0  0  0  0  0
    9.8147   -2.4864   22.9817 N   0  0  0  0  0  0  0  0  0  0  0  0
    9.9731   -1.0697   22.6862 C   0  0  0  0  0  0  0  0  0  0  0  0
   11.4447   -0.8023   22.5579 C   0  0  0  0  0  0  0  0  0  0  0  0
   12.3143   -1.5406   21.7293 C   0  0  0  0  0  0  0  0  0  0  0  0
   13.6244   -1.0690   21.7502 C   0  0  0  0  0  0  0  0  0  0  0  0
   13.6924    0.2648   22.7661 S   0  0  0  0  0  0  0  0  0  0  0  0
   12.0769    0.2669   23.1956 C   0  0  0  0  0  0  0  0  0  0  0  0
   11.2968    1.5181   24.4128 Br  0  0  0  0  0  0  0  0  0  0  0  0
    8.7340   -3.1751   22.2430 C   0  0  0  0  0  0  0  0  0  0  0  0
  1  2  1  0
  3  2  1  6
  3  4  1  0
  4  5  1  0
  5  6  1  0
  6  7  1  0
  7  8  1  0
  7 15  1  0
  8  9  1  0
  9 10  1  0
 10 11  2  0
 11 12  1  0
 12 13  1  0
 13 14  1  0
 13  9  2  0
 15  3  1  0
M  END
>  <Hit>  (15) 
Mpro-x0387_0

>  <Receptor>  (15) 
Mpro-x1249_0

>  <SCORE>  (15) 
-10.292

>  <SCORE.norm>  (15) 
-0.68613500000000005

>  <SCORE.heavy>  (15) 
15

>  <OrigSmiles>  (15) 
BrCC1CCCN(Cc2ccsc2Br)C1

>  <SuCOS_Score>  (15) 
0.39952140568109151

>  <Max_SuCOS_Score>  (15) 
0

>  <Cum_SuCOS_Score>  (15) 
0

>  <TransFSScore_50nM>  (15) 
0.00047899999999999999

>  <TransFSScore_1uM>  (15) 
0.015056999999999999

>  <TransFSScore_10nM>  (15) 
0.0043449999999999999

>  <TransFSScore_200nM>  (15) 
0.0060060000000000001

>  <TransFSScore>  (15) 
0.0064717500000000001

>  <FeatureSteinScore>  (15) 
0.52498069319893115

$$$$
BrCCCCCN1C2CCC1CC2
     RDKit          3D

 13 14  0  0  0  0  0  0  0  0999 V2000
    6.6923   -4.1869   21.5432 Br  0  0  0  0  0  0  0  0  0  0  0  0
    7.9374   -3.5427   22.8803 C   0  0  0  0  0  0  0  0  0  0  0  0
    7.9180   -4.4624   24.1019 C   0  0  0  0  0  0  0  0  0  0  0  0
    8.8592   -3.9570   25.2130 C   0  0  0  0  0  0  0  0  0  0  0  0
   10.3477   -3.9953   24.8259 C   0  0  0  0  0  0  0  0  0  0  0  0
   10.9929   -2.6063   24.7815 C   0  0  0  0  0  0  0  0  0  0  0  0
   10.3860   -1.8129   23.6896 N   0  0  0  0  0  0  0  0  0  0  0  0
   10.8670   -2.1350   22.3528 C   0  0  2  0  0  0  0  0  0  0  0  0
   12.3322   -1.6530   22.3217 C   0  0  0  0  0  0  0  0  0  0  0  0
   12.2612   -0.4004   23.1992 C   0  0  0  0  0  0  0  0  0  0  0  0
   10.7746   -0.4070   23.6242 C   0  0  1  0  0  0  0  0  0  0  0  0
    9.9495    0.0646   22.4160 C   0  0  0  0  0  0  0  0  0  0  0  0
   10.0303   -1.1691   21.4955 C   0  0  0  0  0  0  0  0  0  0  0  0
  1  2  1  0
  2  3  1  0
  3  4  1  0
  4  5  1  0
  5  6  1  0
  6  7  1  0
  7  8  1  0
  8  9  1  1
  9 10  1  0
 11 10  1  6
 11 12  1  0
 11  7  1  0
 12 13  1  0
 13  8  1  0
M  END
>  <Hit>  (16) 
Mpro-x0991_0

>  <Receptor>  (16) 
Mpro-x0387_0

>  <SCORE>  (16) 
-2.8204099999999999

>  <SCORE.norm>  (16) 
-0.21695500000000001

>  <SCORE.heavy>  (16) 
13

>  <OrigSmiles>  (16) 
BrCCCCCN1C2CCC1CC2

>  <SuCOS_Score>  (16) 
0.50098425647565137

>  <Max_SuCOS_Score>  (16) 
0.50098425647565137

>  <Cum_SuCOS_Score>  (16) 
4.0577350045447327

>  <TransFSScore_50nM>  (16) 
0.002745

>  <TransFSScore_1uM>  (16) 
0.033151

>  <TransFSScore_10nM>  (16) 
0.001281

>  <TransFSScore_200nM>  (16) 
0.099191000000000001

>  <TransFSScore>  (16) 
0.034091999999999997

>  <FeatureSteinScore>  (16) 
0.68763978641223167

$$$$
BrCCCCN1C2CCC1CC2
     RDKit          3D

 12 13  0  0  0  0  0  0  0  0999 V2000
    6.7637   -3.9136   22.3699 Br  0  0  0  0  0  0  0  0  0  0  0  0
    8.4278   -4.3343   23.2775 C   0  0  0  0  0  0  0  0  0  0  0  0
    8.3424   -5.6687   24.0199 C   0  0  0  0  0  0  0  0  0  0  0  0
    9.6742   -6.0264   24.6920 C   0  0  0  0  0  0  0  0  0  0  0  0
    9.9740   -5.0755   25.8621 C   0  0  0  0  0  0  0  0  0  0  0  0
    9.1351   -5.3941   27.0465 N   0  0  0  0  0  0  0  0  0  0  0  0
    7.6956   -5.1456   26.9251 C   0  0  2  0  0  0  0  0  0  0  0  0
    7.5579   -3.6088   26.8265 C   0  0  0  0  0  0  0  0  0  0  0  0
    8.7167   -3.1417   27.7178 C   0  0  0  0  0  0  0  0  0  0  0  0
    9.3086   -4.4911   28.1854 C   0  0  1  0  0  0  0  0  0  0  0  0
    8.3286   -5.0780   29.2260 C   0  0  0  0  0  0  0  0  0  0  0  0
    7.1743   -5.5524   28.3214 C   0  0  0  0  0  0  0  0  0  0  0  0
  1  2  1  0
  2  3  1  0
  3  4  1  0
  4  5  1  0
  5  6  1  0
  6  7  1  0
  7  8  1  1
  8  9  1  0
 10  9  1  6
 10 11  1  0
 10  6  1  0
 11 12  1  0
 12  7  1  0
M  END
>  <Hit>  (17) 
Mpro-x0991_0

>  <Receptor>  (17) 
Mpro-x0387_0

>  <SCORE>  (17) 
-1.7179599999999999

>  <SCORE.norm>  (17) 
-0.14316300000000001

>  <SCORE.heavy>  (17) 
12

>  <OrigSmiles>  (17) 
BrCCCCN1C2CCC1CC2

>  <SuCOS_Score>  (17) 
0.6129850460284918

>  <Max_SuCOS_Score>  (17) 
0.6129850460284918

>  <Cum_SuCOS_Score>  (17) 
1.6954896142223004

>  <TransFSScore_50nM>  (17) 
0.00068199999999999999

>  <TransFSScore_1uM>  (17) 
0.021323000000000002

>  <TransFSScore_10nM>  (17) 
0.0020660000000000001

>  <TransFSScore_200nM>  (17) 
0.030540999999999999

>  <TransFSScore>  (17) 
0.013653

>  <FeatureSteinScore>  (17) 
0.42308446128046973

$$$$
BrCCCN(Cc1ccccc1)C1CCC1
     RDKit          3D

 16 17  0  0  0  0  0  0  0  0999 V2000
    5.8033   -6.4233   21.1831 Br  0  0  0  0  0  0  0  0  0  0  0  0
    6.2106   -4.5459   21.4354 C   0  0  0  0  0  0  0  0  0  0  0  0
    7.6632   -4.3776   21.8783 C   0  0  0  0  0  0  0  0  0  0  0  0
    7.9869   -2.8896   22.1370 C   0  0  0  0  0  0  0  0  0  0  0  0
    9.4060   -2.6072   22.5044 N   0  0  0  0  0  0  0  0  0  0  0  0
    9.8604   -1.2716   22.0310 C   0  0  0  0  0  0  0  0  0  0  0  0
   11.3315   -1.0373   22.2797 C   0  0  0  0  0  0  0  0  0  0  0  0
   12.2957   -1.6880   21.4941 C   0  0  0  0  0  0  0  0  0  0  0  0
   13.6549   -1.4871   21.7410 C   0  0  0  0  0  0  0  0  0  0  0  0
   14.0605   -0.6358   22.7712 C   0  0  0  0  0  0  0  0  0  0  0  0
   13.1067    0.0154   23.5573 C   0  0  0  0  0  0  0  0  0  0  0  0
   11.7457   -0.1853   23.3154 C   0  0  0  0  0  0  0  0  0  0  0  0
    9.6467   -2.7348   23.9686 C   0  0  0  0  0  0  0  0  0  0  0  0
   11.0921   -3.1023   24.3331 C   0  0  0  0  0  0  0  0  0  0  0  0
   10.6083   -4.3895   24.9810 C   0  0  0  0  0  0  0  0  0  0  0  0
    9.1785   -4.0628   24.5789 C   0  0  0  0  0  0  0  0  0  0  0  0
  1  2  1  0
  2  3  1  0
  3  4  1  0
  4  5  1  0
  5  6  1  0
  5 13  1  0
  6  7  1  0
  7  8  2  0
  8  9  1  0
  9 10  2  0
 10 11  1  0
 11 12  2  0
 12  7  1  0
 13 14  1  0
 14 15  1  0
 15 16  1  0
 16 13  1  0
M  END
>  <Hit>  (18) 
Mpro-x0072_0

>  <Receptor>  (18) 
Mpro-x0387_0

>  <SCORE>  (18) 
-8.4350500000000004

>  <SCORE.norm>  (18) 
-0.52719099999999997

>  <SCORE.heavy>  (18) 
16

>  <OrigSmiles>  (18) 
BrCCCN(Cc1ccccc1)C1CCC1

>  <SuCOS_Score>  (18) 
0.39053167870984812

>  <Max_SuCOS_Score>  (18) 
0.41051750205576182

>  <Cum_SuCOS_Score>  (18) 
4.5945990595672024

>  <TransFSScore_50nM>  (18) 
0.011656

>  <TransFSScore_1uM>  (18) 
0.148645

>  <TransFSScore_10nM>  (18) 
0.069338999999999998

>  <TransFSScore_200nM>  (18) 
0.19120799999999999

>  <TransFSScore>  (18) 
0.105212

>  <FeatureSteinScore>  (18) 
0.37401905857849732

$$$$
BrCCCN1C2CCC1CC2
     RDKit          3D

 11 12  0  0  0  0  0  0  0  0999 V2000
    9.7635   -2.4994   22.6033 Br  0  0  0  0  0  0  0  0  0  0  0  0
    7.9206   -3.0196   22.9239 C   0  0  0  0  0  0  0  0  0  0  0  0
    7.7517   -4.5395   22.8893 C   0  0  0  0  0  0  0  0  0  0  0  0
    8.6293   -5.2311   23.9371 C   0  0  0  0  0  0  0  0  0  0  0  0
    7.8764   -5.3695   25.2034 N   0  0  0  0  0  0  0  0  0  0  0  0
    7.6207   -4.1206   25.9083 C   0  0  2  0  0  0  0  0  0  0  0  0
    9.0000   -3.6487   26.4142 C   0  0  0  0  0  0  0  0  0  0  0  0
    9.6823   -4.9821   26.7323 C   0  0  0  0  0  0  0  0  0  0  0  0
    8.5907   -5.9932   26.3134 C   0  0  1  0  0  0  0  0  0  0  0  0
    7.5051   -5.9750   27.4019 C   0  0  0  0  0  0  0  0  0  0  0  0
    6.8181   -4.6240   27.1208 C   0  0  0  0  0  0  0  0  0  0  0  0
  1  2  1  0
  2  3  1  0
  3  4  1  0
  4  5  1  0
  5  6  1  0
  6  7  1  1
  7  8  1  0
  9  8  1  1
  9 10  1  0
  9  5  1  0
 10 11  1  0
 11  6  1  0
M  END
>  <Hit>  (19) 
Mpro-x0991_0

>  <Receptor>  (19) 
Mpro-x0874_0

>  <SCORE>  (19) 
-1.45635

>  <SCORE.norm>  (19) 
-0.13239600000000001

>  <SCORE.heavy>  (19) 
11

>  <OrigSmiles>  (19) 
BrCCCN1C2CCC1CC2

>  <SuCOS_Score>  (19) 
0.50105963634768991

>  <Max_SuCOS_Score>  (19) 
0.50105963634768991

>  <Cum_SuCOS_Score>  (19) 
2.1669524800491295

>  <TransFSScore_50nM>  (19) 
0.00031100000000000002

>  <TransFSScore_1uM>  (19) 
0.014995

>  <TransFSScore_10nM>  (19) 
0.005378

>  <TransFSScore_200nM>  (19) 
0.020642000000000001

>  <TransFSScore>  (19) 
0.0103315

>  <FeatureSteinScore>  (19) 
0.38467696682638625

$$$$
BrCCN(CC1CCC1)c1ccccc1
     RDKit          3D

 15 16  0  0  0  0  0  0  0  0999 V2000
    7.9062   -4.6869   23.1160 Br  0  0  0  0  0  0  0  0  0  0  0  0
    8.6667   -3.4166   21.8660 C   0  0  0  0  0  0  0  0  0  0  0  0
    9.4749   -2.3544   22.6209 C   0  0  0  0  0  0  0  0  0  0  0  0
   10.0502   -1.3267   21.7169 N   0  0  0  0  0  0  0  0  0  0  0  0
    9.2405   -0.0731   21.6734 C   0  0  0  0  0  0  0  0  0  0  0  0
    8.4830    0.0809   20.3349 C   0  0  0  0  0  0  0  0  0  0  0  0
    7.5820    1.3143   20.2747 C   0  0  0  0  0  0  0  0  0  0  0  0
    6.3588    0.4147   20.1645 C   0  0  0  0  0  0  0  0  0  0  0  0
    7.2518   -0.8171   20.2259 C   0  0  0  0  0  0  0  0  0  0  0  0
   11.4181   -1.0379   22.1251 C   0  0  0  0  0  0  0  0  0  0  0  0
   12.5163   -1.5829   21.4267 C   0  0  0  0  0  0  0  0  0  0  0  0
   13.8228   -1.2986   21.8269 C   0  0  0  0  0  0  0  0  0  0  0  0
   14.0535   -0.4689   22.9250 C   0  0  0  0  0  0  0  0  0  0  0  0
   12.9778    0.0772   23.6267 C   0  0  0  0  0  0  0  0  0  0  0  0
   11.6680   -0.2050   23.2331 C   0  0  0  0  0  0  0  0  0  0  0  0
  1  2  1  0
  2  3  1  0
  3  4  1  0
  4  5  1  0
  4 10  1  0
  5  6  1  0
  6  7  1  0
  7  8  1  0
  8  9  1  0
  9  6  1  0
 10 11  2  0
 11 12  1  0
 12 13  2  0
 13 14  1  0
 14 15  2  0
 15 10  1  0
M  END
>  <Hit>  (20) 
Mpro-x0072_0

>  <Receptor>  (20) 
Mpro-x0387_0

>  <SCORE>  (20) 
-11.6038

>  <SCORE.norm>  (20) 
-0.773586

>  <SCORE.heavy>  (20) 
15

>  <OrigSmiles>  (20) 
BrCCN(CC1CCC1)c1ccccc1

>  <SuCOS_Score>  (20) 
0.31292044391031015

>  <Max_SuCOS_Score>  (20) 
0.43152254647045502

>  <Cum_SuCOS_Score>  (20) 
4.9794950961013624

>  <TransFSScore_50nM>  (20) 
0.001289

>  <TransFSScore_1uM>  (20) 
0.21276400000000001

>  <TransFSScore_10nM>  (20) 
0.010886

>  <TransFSScore_200nM>  (20) 
0.080260999999999999

>  <TransFSScore>  (20) 
0.076300000000000007

>  <FeatureSteinScore>  (20) 
0.25549525627389108

$$$$
BrCCN(CCC1CCC1)Cc1ccccc1
     RDKit          3D

 17 18  0  0  0  0  0  0  0  0999 V2000
   10.5142    3.9201   23.1707 Br  0  0  0  0  0  0  0  0  0  0  0  0
   10.5181    2.2750   22.1380 C   0  0  0  0  0  0  0  0  0  0  0  0
    9.1954    1.4900   22.2981 C   0  0  0  0  0  0  0  0  0  0  0  0
    9.2005    0.1237   21.7094 N   0  0  0  0  0  0  0  0  0  0  0  0
    7.8478   -0.2742   21.2199 C   0  0  0  0  0  0  0  0  0  0  0  0
    7.3891    0.5336   19.9882 C   0  0  0  0  0  0  0  0  0  0  0  0
    5.9400    0.2002   19.5633 C   0  0  0  0  0  0  0  0  0  0  0  0
    5.4753    0.9866   18.3366 C   0  0  0  0  0  0  0  0  0  0  0  0
    5.2943   -0.3123   17.5661 C   0  0  0  0  0  0  0  0  0  0  0  0
    5.7778   -1.1011   18.7734 C   0  0  0  0  0  0  0  0  0  0  0  0
    9.7829   -0.8807   22.6349 C   0  0  0  0  0  0  0  0  0  0  0  0
   11.2943   -0.8343   22.6346 C   0  0  0  0  0  0  0  0  0  0  0  0
   12.0288   -1.5534   21.6790 C   0  0  0  0  0  0  0  0  0  0  0  0
   13.4240   -1.5050   21.6822 C   0  0  0  0  0  0  0  0  0  0  0  0
   14.0951   -0.7390   22.6376 C   0  0  0  0  0  0  0  0  0  0  0  0
   13.3719   -0.0191   23.5911 C   0  0  0  0  0  0  0  0  0  0  0  0
   11.9760   -0.0669   23.5927 C   0  0  0  0  0  0  0  0  0  0  0  0
  1  2  1  0
  2  3  1  0
  3  4  1  0
  4  5  1  0
  4 11  1  0
  5  6  1  0
  6  7  1  0
  7  8  1  0
  8  9  1  0
  9 10  1  0
 10  7  1  0
 11 12  1  0
 12 13  2  0
 13 14  1  0
 14 15  2  0
 15 16  1  0
 16 17  2  0
 17 12  1  0
M  END
>  <Hit>  (21) 
Mpro-x0072_0

>  <Receptor>  (21) 
Mpro-x0387_0

>  <SCORE>  (21) 
-10.668699999999999

>  <SCORE.norm>  (21) 
-0.62756800000000001

>  <SCORE.heavy>  (21) 
17

>  <OrigSmiles>  (21) 
BrCCN(CCC1CCC1)Cc1ccccc1

>  <SuCOS_Score>  (21) 
0.31314212232912619

>  <Max_SuCOS_Score>  (21) 
0.50614232858786967

>  <Cum_SuCOS_Score>  (21) 
6.0718851508806564

>  <TransFSScore_50nM>  (21) 
0.0058650000000000004

>  <TransFSScore_1uM>  (21) 
0.31818800000000003

>  <TransFSScore_10nM>  (21) 
0.025159999999999998

>  <TransFSScore_200nM>  (21) 
0.263631

>  <TransFSScore>  (21) 
0.15321100000000001

>  <FeatureSteinScore>  (21) 
0.39740169104152206

$$$$
BrCCN(CCCC1CCC1)Cc1ccccc1
     RDKit          3D

 18 19  0  0  0  0  0  0  0  0999 V2000
    6.3500   -6.3302   21.8445 Br  0  0  0  0  0  0  0  0  0  0  0  0
    7.7863   -5.0313   21.7779 C   0  0  0  0  0  0  0  0  0  0  0  0
    7.3561   -3.7350   22.4649 C   0  0  0  0  0  0  0  0  0  0  0  0
    8.4210   -2.7149   22.3550 N   0  0  0  0  0  0  0  0  0  0  0  0
    7.8891   -1.3980   21.9260 C   0  0  0  0  0  0  0  0  0  0  0  0
    8.6422   -0.8432   20.7080 C   0  0  0  0  0  0  0  0  0  0  0  0
    7.9261    0.3688   20.0953 C   0  0  0  0  0  0  0  0  0  0  0  0
    6.5390   -0.0212   19.5562 C   0  0  0  0  0  0  0  0  0  0  0  0
    5.7096    1.1590   19.0490 C   0  0  0  0  0  0  0  0  0  0  0  0
    5.7485    0.5805   17.6414 C   0  0  0  0  0  0  0  0  0  0  0  0
    6.5800   -0.5934   18.1402 C   0  0  0  0  0  0  0  0  0  0  0  0
    9.2774   -2.6516   23.5672 C   0  0  0  0  0  0  0  0  0  0  0  0
   10.5378   -1.8316   23.3911 C   0  0  0  0  0  0  0  0  0  0  0  0
   11.4472   -2.1485   22.3685 C   0  0  0  0  0  0  0  0  0  0  0  0
   12.6173   -1.4040   22.2100 C   0  0  0  0  0  0  0  0  0  0  0  0
   12.8923   -0.3419   23.0733 C   0  0  0  0  0  0  0  0  0  0  0  0
   11.9983   -0.0240   24.0978 C   0  0  0  0  0  0  0  0  0  0  0  0
   10.8273   -0.7675   24.2609 C   0  0  0  0  0  0  0  0  0  0  0  0
  1  2  1  0
  2  3  1  0
  3  4  1  0
  4  5  1  0
  4 12  1  0
  5  6  1  0
  6  7  1  0
  7  8  1  0
  8  9  1  0
  9 10  1  0
 10 11  1  0
 11  8  1  0
 12 13  1  0
 13 14  2  0
 14 15  1  0
 15 16  2  0
 16 17  1  0
 17 18  2  0
 18 13  1  0
M  END
>  <Hit>  (22) 
Mpro-x0072_0

>  <Receptor>  (22) 
Mpro-x0387_0

>  <SCORE>  (22) 
-7.5787899999999997

>  <SCORE.norm>  (22) 
-0.42104399999999997

>  <SCORE.heavy>  (22) 
18

>  <OrigSmiles>  (22) 
BrCCN(CCCC1CCC1)Cc1ccccc1

>  <SuCOS_Score>  (22) 
0.38534039449106872

>  <Max_SuCOS_Score>  (22) 
0.43736428014106205

>  <Cum_SuCOS_Score>  (22) 
5.9581850368840108

>  <TransFSScore_50nM>  (22) 
0.013053

>  <TransFSScore_1uM>  (22) 
0.207733

>  <TransFSScore_10nM>  (22) 
0.010792

>  <TransFSScore_200nM>  (22) 
0.28336099999999997

>  <TransFSScore>  (22) 
0.12873475000000001

>  <FeatureSteinScore>  (22) 
0.55067534111679317

$$$$
BrCCN(CCCOC1CCC1)Cc1ccccc1
     RDKit          3D

 19 20  0  0  0  0  0  0  0  0999 V2000
    6.0262   -0.9130   18.3669 Br  0  0  0  0  0  0  0  0  0  0  0  0
    7.6059   -0.1824   19.2179 C   0  0  0  0  0  0  0  0  0  0  0  0
    7.9060   -0.9377   20.5178 C   0  0  0  0  0  0  0  0  0  0  0  0
    9.1267   -0.4086   21.2014 N   0  0  0  0  0  0  0  0  0  0  0  0
    8.7820    0.7078   22.1202 C   0  0  0  0  0  0  0  0  0  0  0  0
    8.5353    2.0260   21.3596 C   0  0  0  0  0  0  0  0  0  0  0  0
    8.0562    3.1325   22.3097 C   0  0  0  0  0  0  0  0  0  0  0  0
    7.9365    4.3729   21.6394 O   0  0  0  0  0  0  0  0  0  0  0  0
    7.4855    5.3878   22.5198 C   0  0  0  0  0  0  0  0  0  0  0  0
    7.6213    6.7753   21.8994 C   0  0  0  0  0  0  0  0  0  0  0  0
    6.1065    6.9027   21.8474 C   0  0  0  0  0  0  0  0  0  0  0  0
    5.9676    5.5192   22.4648 C   0  0  0  0  0  0  0  0  0  0  0  0
    9.8242   -1.4769   21.9637 C   0  0  0  0  0  0  0  0  0  0  0  0
   11.2451   -1.0974   22.3080 C   0  0  0  0  0  0  0  0  0  0  0  0
   12.3073   -1.5659   21.5192 C   0  0  0  0  0  0  0  0  0  0  0  0
   13.6243   -1.2388   21.8475 C   0  0  0  0  0  0  0  0  0  0  0  0
   13.8896   -0.4419   22.9632 C   0  0  0  0  0  0  0  0  0  0  0  0
   12.8381    0.0290   23.7528 C   0  0  0  0  0  0  0  0  0  0  0  0
   11.5191   -0.2973   23.4290 C   0  0  0  0  0  0  0  0  0  0  0  0
  1  2  1  0
  2  3  1  0
  3  4  1  0
  4  5  1  0
  4 13  1  0
  5  6  1  0
  6  7  1  0
  7  8  1  0
  8  9  1  0
  9 10  1  0
 10 11  1  0
 11 12  1  0
 12  9  1  0
 13 14  1  0
 14 15  2  0
 15 16  1  0
 16 17  2  0
 17 18  1  0
 18 19  2  0
 19 14  1  0
M  END
>  <Hit>  (23) 
Mpro-x0072_0

>  <Receptor>  (23) 
Mpro-x0387_0

>  <SCORE>  (23) 
-10.0763

>  <SCORE.norm>  (23) 
-0.53033399999999997

>  <SCORE.heavy>  (23) 
19

>  <OrigSmiles>  (23) 
BrCCN(CCCOC1CCC1)Cc1ccccc1

>  <SuCOS_Score>  (23) 
0.30648296028615812

>  <Max_SuCOS_Score>  (23) 
0.44836340242879014

>  <Cum_SuCOS_Score>  (23) 
5.1975166409418625

>  <TransFSScore_50nM>  (23) 
0.018765

>  <TransFSScore_1uM>  (23) 
0.13208300000000001

>  <TransFSScore_10nM>  (23) 
0.036422999999999997

>  <TransFSScore_200nM>  (23) 
0.085308999999999996

>  <TransFSScore>  (23) 
0.068145000000000011

>  <FeatureSteinScore>  (23) 
0.33702224699059274

$$$$
BrCCN(CCCOCc1ccccc1)C1CCC1
     RDKit          3D

 19 20  0  0  0  0  0  0  0  0999 V2000
    2.4764    1.6369   20.3072 Br  0  0  0  0  0  0  0  0  0  0  0  0
    4.1442    2.3146   19.5789 C   0  0  0  0  0  0  0  0  0  0  0  0
    5.3657    1.7804   20.3402 C   0  0  0  0  0  0  0  0  0  0  0  0
    5.6083    0.3446   20.0580 N   0  0  0  0  0  0  0  0  0  0  0  0
    6.0565   -0.4933   21.1954 C   0  0  0  0  0  0  0  0  0  0  0  0
    6.2755   -1.9873   20.8748 C   0  0  0  0  0  0  0  0  0  0  0  0
    7.2140   -2.6984   21.8551 C   0  0  0  0  0  0  0  0  0  0  0  0
    8.4287   -1.9804   21.9667 O   0  0  0  0  0  0  0  0  0  0  0  0
    9.3310   -2.6575   22.8165 C   0  0  0  0  0  0  0  0  0  0  0  0
   10.5662   -1.8202   22.9761 C   0  0  0  0  0  0  0  0  0  0  0  0
   11.6467   -1.9785   22.0950 C   0  0  0  0  0  0  0  0  0  0  0  0
   12.7925   -1.1933   22.2403 C   0  0  0  0  0  0  0  0  0  0  0  0
   12.8608   -0.2365   23.2556 C   0  0  0  0  0  0  0  0  0  0  0  0
   11.7810   -0.0599   24.1243 C   0  0  0  0  0  0  0  0  0  0  0  0
   10.6338   -0.8451   23.9835 C   0  0  0  0  0  0  0  0  0  0  0  0
    6.1967   -0.0258   18.7419 C   0  0  0  0  0  0  0  0  0  0  0  0
    5.2924    0.3741   17.5779 C   0  0  0  0  0  0  0  0  0  0  0  0
    6.3903    1.2803   17.0339 C   0  0  0  0  0  0  0  0  0  0  0  0
    7.3027    0.8818   18.1867 C   0  0  0  0  0  0  0  0  0  0  0  0
  1  2  1  0
  2  3  1  0
  3  4  1  0
  4  5  1  0
  4 16  1  0
  5  6  1  0
  6  7  1  0
  7  8  1  0
  8  9  1  0
  9 10  1  0
 10 11  2  0
 11 12  1  0
 12 13  2  0
 13 14  1  0
 14 15  2  0
 15 10  1  0
 16 17  1  0
 17 18  1  0
 18 19  1  0
 19 16  1  0
M  END
>  <Hit>  (24) 
Mpro-x0072_0

>  <Receptor>  (24) 
Mpro-x0387_0

>  <SCORE>  (24) 
-8.0880299999999998

>  <SCORE.norm>  (24) 
-0.42568600000000001

>  <SCORE.heavy>  (24) 
19

>  <OrigSmiles>  (24) 
BrCCN(CCCOCc1ccccc1)C1CCC1

>  <SuCOS_Score>  (24) 
0.37951850684054772

>  <Max_SuCOS_Score>  (24) 
0.44302360453235473

>  <Cum_SuCOS_Score>  (24) 
5.9194495372269582

>  <TransFSScore_50nM>  (24) 
0.042841999999999998

>  <TransFSScore_1uM>  (24) 
0.354514

>  <TransFSScore_10nM>  (24) 
0.099820000000000006

>  <TransFSScore_200nM>  (24) 
0.30573

>  <TransFSScore>  (24) 
0.2007265

>  <FeatureSteinScore>  (24) 
0.29154553976817754

$$$$
BrCCN(CCOCC1CCC1)Cc1ccccc1
     RDKit          3D

 19 20  0  0  0  0  0  0  0  0999 V2000
   10.9829   -5.0331   25.6437 Br  0  0  0  0  0  0  0  0  0  0  0  0
   10.1835   -3.5024   24.7656 C   0  0  0  0  0  0  0  0  0  0  0  0
    9.1844   -3.9793   23.6967 C   0  0  0  0  0  0  0  0  0  0  0  0
    8.5401   -2.8850   22.9195 N   0  0  0  0  0  0  0  0  0  0  0  0
    7.2445   -3.3261   22.3367 C   0  0  0  0  0  0  0  0  0  0  0  0
    6.3123   -2.1447   22.0102 C   0  0  0  0  0  0  0  0  0  0  0  0
    6.8625   -1.3732   20.9599 O   0  0  0  0  0  0  0  0  0  0  0  0
    6.0359   -0.2605   20.6727 C   0  0  0  0  0  0  0  0  0  0  0  0
    6.6320    0.5855   19.5358 C   0  0  0  0  0  0  0  0  0  0  0  0
    6.9169   -0.1950   18.2534 C   0  0  0  0  0  0  0  0  0  0  0  0
    5.8994    0.6623   17.5105 C   0  0  0  0  0  0  0  0  0  0  0  0
    5.6179    1.4479   18.7856 C   0  0  0  0  0  0  0  0  0  0  0  0
    9.4317   -2.3143   21.8748 C   0  0  0  0  0  0  0  0  0  0  0  0
   10.5759   -1.5244   22.4650 C   0  0  0  0  0  0  0  0  0  0  0  0
   11.8946   -1.7968   22.0692 C   0  0  0  0  0  0  0  0  0  0  0  0
   12.9562   -1.0724   22.6147 C   0  0  0  0  0  0  0  0  0  0  0  0
   12.7087   -0.0702   23.5552 C   0  0  0  0  0  0  0  0  0  0  0  0
   11.3987    0.2101   23.9508 C   0  0  0  0  0  0  0  0  0  0  0  0
   10.3340   -0.5140   23.4094 C   0  0  0  0  0  0  0  0  0  0  0  0
  1  2  1  0
  2  3  1  0
  3  4  1  0
  4  5  1  0
  4 13  1  0
  5  6  1  0
  6  7  1  0
  7  8  1  0
  8  9  1  0
  9 10  1  0
 10 11  1  0
 11 12  1  0
 12  9  1  0
 13 14  1  0
 14 15  2  0
 15 16  1  0
 16 17  2  0
 17 18  1  0
 18 19  2  0
 19 14  1  0
M  END
>  <Hit>  (25) 
Mpro-x0072_0

>  <Receptor>  (25) 
Mpro-x0387_0

>  <SCORE>  (25) 
-10.986599999999999

>  <SCORE.norm>  (25) 
-0.57824299999999995

>  <SCORE.heavy>  (25) 
19

>  <OrigSmiles>  (25) 
BrCCN(CCOCC1CCC1)Cc1ccccc1

>  <SuCOS_Score>  (25) 
0.47282623918133743

>  <Max_SuCOS_Score>  (25) 
0.47282623918133743

>  <Cum_SuCOS_Score>  (25) 
6.4260201712927119

>  <TransFSScore_50nM>  (25) 
0.004365

>  <TransFSScore_1uM>  (25) 
0.20019500000000001

>  <TransFSScore_10nM>  (25) 
0.015235

>  <TransFSScore_200nM>  (25) 
0.074994000000000005

>  <TransFSScore>  (25) 
0.073697250000000006

>  <FeatureSteinScore>  (25) 
0.58910944622130867

$$$$
BrCCN(CCOCc1ccccc1)C1CCC1
     RDKit          3D

 18 19  0  0  0  0  0  0  0  0999 V2000
    4.8366    1.7354   24.4804 Br  0  0  0  0  0  0  0  0  0  0  0  0
    6.1154    0.8905   23.2957 C   0  0  0  0  0  0  0  0  0  0  0  0
    5.9512    1.4407   21.8707 C   0  0  0  0  0  0  0  0  0  0  0  0
    6.8732    0.8303   20.8855 N   0  0  0  0  0  0  0  0  0  0  0  0
    8.2779    1.2886   21.0230 C   0  0  0  0  0  0  0  0  0  0  0  0
    9.2335    0.0988   20.9538 C   0  0  0  0  0  0  0  0  0  0  0  0
    8.9925   -0.7600   22.0503 O   0  0  0  0  0  0  0  0  0  0  0  0
    9.9175   -1.8294   22.0523 C   0  0  0  0  0  0  0  0  0  0  0  0
   11.2943   -1.3275   22.3935 C   0  0  0  0  0  0  0  0  0  0  0  0
   12.3930   -1.7131   21.6111 C   0  0  0  0  0  0  0  0  0  0  0  0
   13.6739   -1.2526   21.9232 C   0  0  0  0  0  0  0  0  0  0  0  0
   13.8642   -0.4002   23.0132 C   0  0  0  0  0  0  0  0  0  0  0  0
   12.7731   -0.0048   23.7911 C   0  0  0  0  0  0  0  0  0  0  0  0
   11.4904   -0.4651   23.4832 C   0  0  0  0  0  0  0  0  0  0  0  0
    6.2994    0.7648   19.5139 C   0  0  0  0  0  0  0  0  0  0  0  0
    7.1172   -0.0055   18.4720 C   0  0  0  0  0  0  0  0  0  0  0  0
    5.9787   -1.0109   18.3349 C   0  0  0  0  0  0  0  0  0  0  0  0
    5.1631   -0.2467   19.3732 C   0  0  0  0  0  0  0  0  0  0  0  0
  1  2  1  0
  2  3  1  0
  3  4  1  0
  4  5  1  0
  4 15  1  0
  5  6  1  0
  6  7  1  0
  7  8  1  0
  8  9  1  0
  9 10  2  0
 10 11  1  0
 11 12  2  0
 12 13  1  0
 13 14  2  0
 14  9  1  0
 15 16  1  0
 16 17  1  0
 17 18  1  0
 18 15  1  0
M  END
>  <Hit>  (26) 
Mpro-x0072_0

>  <Receptor>  (26) 
Mpro-x0387_0

>  <SCORE>  (26) 
-8.0501900000000006

>  <SCORE.norm>  (26) 
-0.44723299999999999

>  <SCORE.heavy>  (26) 
18

>  <OrigSmiles>  (26) 
BrCCN(CCOCc1ccccc1)C1CCC1

>  <SuCOS_Score>  (26) 
0.31220174997280797

>  <Max_SuCOS_Score>  (26) 
0.45329651025484663

>  <Cum_SuCOS_Score>  (26) 
5.6900616761909166

>  <TransFSScore_50nM>  (26) 
0.011346

>  <TransFSScore_1uM>  (26) 
0.45991100000000001

>  <TransFSScore_10nM>  (26) 
0.086013999999999993

>  <TransFSScore_200nM>  (26) 
0.26621899999999998

>  <TransFSScore>  (26) 
0.20587250000000001

>  <FeatureSteinScore>  (26) 
0.34918458482287146

$$$$
BrCCN(Cc1ccccc1)CC1CCC1
     RDKit          3D

 16 17  0  0  0  0  0  0  0  0999 V2000
   10.8718   -4.6729   25.0839 Br  0  0  0  0  0  0  0  0  0  0  0  0
   10.3359   -2.8296   24.8198 C   0  0  0  0  0  0  0  0  0  0  0  0
    9.0234   -2.7786   24.0077 C   0  0  0  0  0  0  0  0  0  0  0  0
    9.2011   -2.8972   22.5321 N   0  0  0  0  0  0  0  0  0  0  0  0
    9.6037   -1.5839   21.9279 C   0  0  0  0  0  0  0  0  0  0  0  0
   11.0070   -1.1489   22.3115 C   0  0  0  0  0  0  0  0  0  0  0  0
   12.1335   -1.7595   21.7345 C   0  0  0  0  0  0  0  0  0  0  0  0
   13.4193   -1.3744   22.1167 C   0  0  0  0  0  0  0  0  0  0  0  0
   13.5948   -0.3886   23.0887 C   0  0  0  0  0  0  0  0  0  0  0  0
   12.4839    0.2110   23.6842 C   0  0  0  0  0  0  0  0  0  0  0  0
   11.1955   -0.1730   23.3068 C   0  0  0  0  0  0  0  0  0  0  0  0
    7.9831   -3.4950   21.8944 C   0  0  0  0  0  0  0  0  0  0  0  0
    7.8711   -5.0447   21.9406 C   0  0  0  0  0  0  0  0  0  0  0  0
    7.4966   -5.6976   23.2666 C   0  0  0  0  0  0  0  0  0  0  0  0
    6.2258   -6.2499   22.6318 C   0  0  0  0  0  0  0  0  0  0  0  0
    6.6124   -5.6258   21.2962 C   0  0  0  0  0  0  0  0  0  0  0  0
  1  2  1  0
  2  3  1  0
  3  4  1  0
  4  5  1  0
  4 12  1  0
  5  6  1  0
  6  7  2  0
  7  8  1  0
  8  9  2  0
  9 10  1  0
 10 11  2  0
 11  6  1  0
 12 13  1  0
 13 14  1  0
 14 15  1  0
 15 16  1  0
 16 13  1  0
M  END
>  <Hit>  (27) 
Mpro-x0072_0

>  <Receptor>  (27) 
Mpro-x0387_0

>  <SCORE>  (27) 
-10.486499999999999

>  <SCORE.norm>  (27) 
-0.65540900000000002

>  <SCORE.heavy>  (27) 
16

>  <OrigSmiles>  (27) 
BrCCN(Cc1ccccc1)CC1CCC1

>  <SuCOS_Score>  (27) 
0.45361582498100272

>  <Max_SuCOS_Score>  (27) 
0.46604624500715031

>  <Cum_SuCOS_Score>  (27) 
4.9231991563644408

>  <TransFSScore_50nM>  (27) 
0.0091859999999999997

>  <TransFSScore_1uM>  (27) 
0.27593800000000002

>  <TransFSScore_10nM>  (27) 
0.020070000000000001

>  <TransFSScore_200nM>  (27) 
0.079729999999999995

>  <TransFSScore>  (27) 
0.096231000000000011

>  <FeatureSteinScore>  (27) 
0.38574085190745161

$$$$
Brc1ccc(-c2ccc3c(c2)OCO3)cc1
     RDKit          3D

 16 18  0  0  0  0  0  0  0  0999 V2000
   13.2723   -1.6930   21.6554 Br  0  0  0  0  0  0  0  0  0  0  0  0
   12.6240    0.0092   22.2571 C   0  0  0  0  0  0  0  0  0  0  0  0
   11.3469    0.4538   21.8970 C   0  0  0  0  0  0  0  0  0  0  0  0
   10.8969    1.7107   22.3191 C   0  0  0  0  0  0  0  0  0  0  0  0
   11.7191    2.5379   23.1082 C   0  0  0  0  0  0  0  0  0  0  0  0
   11.2440    3.8727   23.5530 C   0  0  0  0  0  0  0  0  0  0  0  0
   12.0865    4.7165   24.3278 C   0  0  0  0  0  0  0  0  0  0  0  0
   11.6419    5.9820   24.7515 C   0  0  0  0  0  0  0  0  0  0  0  0
   10.3590    6.3753   24.3880 C   0  0  0  0  0  0  0  0  0  0  0  0
    9.5463    5.5797   23.6498 C   0  0  0  0  0  0  0  0  0  0  0  0
    9.9451    4.3208   23.2106 C   0  0  0  0  0  0  0  0  0  0  0  0
    8.3417    6.2222   23.4381 O   0  0  0  0  0  0  0  0  0  0  0  0
    8.4018    7.5009   24.0856 C   0  0  0  0  0  0  0  0  0  0  0  0
    9.7064    7.5575   24.6794 O   0  0  0  0  0  0  0  0  0  0  0  0
   12.9976    2.0748   23.4693 C   0  0  0  0  0  0  0  0  0  0  0  0
   13.4439    0.8190   23.0473 C   0  0  0  0  0  0  0  0  0  0  0  0
  1  2  1  0
  2  3  2  0
  3  4  1  0
  4  5  2  0
  5  6  1  0
  5 15  1  0
  6  7  2  0
  7  8  1  0
  8  9  2  0
  9 10  1  0
 10 11  2  0
 10 12  1  0
 11  6  1  0
 12 13  1  0
 13 14  1  0
 14  9  1  0
 15 16  2  0
 16  2  1  0
M  END
>  <Hit>  (28) 
Mpro-x0946_0

>  <Receptor>  (28) 
Mpro-x1249_0

>  <SCORE>  (28) 
-10.906000000000001

>  <SCORE.norm>  (28) 
-0.68162800000000001

>  <SCORE.heavy>  (28) 
16

>  <OrigSmiles>  (28) 
Brc1ccc(-c2ccc3c(c2)OCO3)cc1

>  <SuCOS_Score>  (28) 
0.50195789328717844

>  <Max_SuCOS_Score>  (28) 
0.50195789328717844

>  <Cum_SuCOS_Score>  (28) 
3.5072139597518843

>  <TransFSScore_50nM>  (28) 
0.082336999999999994

>  <TransFSScore_1uM>  (28) 
0.23561699999999999

>  <TransFSScore_10nM>  (28) 
0.010607999999999999

>  <TransFSScore_200nM>  (28) 
0.13478299999999999

>  <TransFSScore>  (28) 
0.11583624999999999

>  <FeatureSteinScore>  (28) 
0.23719289510836181

$$$$
Brc1ccc(-c2ccc3ncoc3c2)cc1
     RDKit          3D

 16 18  0  0  0  0  0  0  0  0999 V2000
   12.5803   -1.5593   21.7409 Br  0  0  0  0  0  0  0  0  0  0  0  0
   12.2659    0.1813   22.4835 C   0  0  0  0  0  0  0  0  0  0  0  0
   10.9632    0.6200   22.7456 C   0  0  0  0  0  0  0  0  0  0  0  0
   10.7458    1.9033   23.2618 C   0  0  0  0  0  0  0  0  0  0  0  0
   11.8299    2.7637   23.5216 C   0  0  0  0  0  0  0  0  0  0  0  0
   11.6005    4.1263   24.0654 C   0  0  0  0  0  0  0  0  0  0  0  0
   12.6866    5.0359   24.2111 C   0  0  0  0  0  0  0  0  0  0  0  0
   12.4811    6.3299   24.7260 C   0  0  0  0  0  0  0  0  0  0  0  0
   11.1842    6.6805   25.0839 C   0  0  0  0  0  0  0  0  0  0  0  0
   10.7389    7.8381   25.5926 N   0  0  0  0  0  0  0  0  0  0  0  0
    9.4095    7.6258   25.7499 C   0  0  0  0  0  0  0  0  0  0  0  0
    9.0455    6.4125   25.3640 O   0  0  0  0  0  0  0  0  0  0  0  0
   10.1384    5.8208   24.9496 C   0  0  0  0  0  0  0  0  0  0  0  0
   10.2973    4.5345   24.4448 C   0  0  0  0  0  0  0  0  0  0  0  0
   13.1346    2.3066   23.2604 C   0  0  0  0  0  0  0  0  0  0  0  0
   13.3487    1.0240   22.7474 C   0  0  0  0  0  0  0  0  0  0  0  0
  1  2  1  0
  2  3  2  0
  3  4  1  0
  4  5  2  0
  5  6  1  0
  5 15  1  0
  6  7  2  0
  7  8  1  0
  8  9  2  0
  9 10  1  0
 10 11  2  0
 11 12  1  0
 12 13  1  0
 13 14  2  0
 13  9  1  0
 14  6  1  0
 15 16  2  0
 16  2  1  0
M  END
>  <Hit>  (29) 
Mpro-x0946_0

>  <Receptor>  (29) 
Mpro-x0874_0

>  <SCORE>  (29) 
-10.1525

>  <SCORE.norm>  (29) 
-0.63453099999999996

>  <SCORE.heavy>  (29) 
16

>  <OrigSmiles>  (29) 
Brc1ccc(-c2ccc3ncoc3c2)cc1

>  <SuCOS_Score>  (29) 
0.5403699344081383

>  <Max_SuCOS_Score>  (29) 
0.5403699344081383

>  <Cum_SuCOS_Score>  (29) 
3.6405603815135512

>  <TransFSScore_50nM>  (29) 
0.42336400000000002

>  <TransFSScore_1uM>  (29) 
0.537906

>  <TransFSScore_10nM>  (29) 
0.097955

>  <TransFSScore_200nM>  (29) 
0.18549399999999999

>  <TransFSScore>  (29) 
0.31117975000000003

>  <FeatureSteinScore>  (29) 
0.29491067031004381

$$$$
Brc1ccc(-c2cn3ccsc3n2)cc1
     RDKit          3D

 15 17  0  0  0  0  0  0  0  0999 V2000
   12.6342   -1.4709   21.8675 Br  0  0  0  0  0  0  0  0  0  0  0  0
   12.2615    0.2553   22.6165 C   0  0  0  0  0  0  0  0  0  0  0  0
   10.9428    0.6937   22.7764 C   0  0  0  0  0  0  0  0  0  0  0  0
   10.6850    1.9670   23.2987 C   0  0  0  0  0  0  0  0  0  0  0  0
   11.7445    2.8192   23.6676 C   0  0  0  0  0  0  0  0  0  0  0  0
   11.4736    4.1711   24.2176 C   0  0  0  0  0  0  0  0  0  0  0  0
   10.2217    4.8058   24.2726 C   0  0  0  0  0  0  0  0  0  0  0  0
   10.4399    5.9993   24.8384 N   0  0  0  0  0  0  0  0  0  0  0  0
    9.7171    7.0849   25.1845 C   0  0  0  0  0  0  0  0  0  0  0  0
   10.5251    8.0767   25.7612 C   0  0  0  0  0  0  0  0  0  0  0  0
   12.1542    7.5356   25.8135 S   0  0  0  0  0  0  0  0  0  0  0  0
   11.7244    6.0805   25.1038 C   0  0  0  0  0  0  0  0  0  0  0  0
   12.4241    4.9931   24.7500 N   0  0  0  0  0  0  0  0  0  0  0  0
   13.0653    2.3609   23.5087 C   0  0  0  0  0  0  0  0  0  0  0  0
   13.3192    1.0881   22.9890 C   0  0  0  0  0  0  0  0  0  0  0  0
  1  2  1  0
  2  3  2  0
  3  4  1  0
  4  5  2  0
  5  6  1  0
  5 14  1  0
  6  7  2  0
  7  8  1  0
  8  9  1  0
  9 10  2  0
 10 11  1  0
 11 12  1  0
 12 13  2  0
 12  8  1  0
 13  6  1  0
 14 15  2  0
 15  2  1  0
M  END
>  <Hit>  (30) 
Mpro-x0946_0

>  <Receptor>  (30) 
Mpro-x1249_0

>  <SCORE>  (30) 
-10.4795

>  <SCORE.norm>  (30) 
-0.698631

>  <SCORE.heavy>  (30) 
15

>  <OrigSmiles>  (30) 
Brc1ccc(-c2cn3ccsc3n2)cc1

>  <SuCOS_Score>  (30) 
0.51794468557960061

>  <Max_SuCOS_Score>  (30) 
0.51794468557960061

>  <Cum_SuCOS_Score>  (30) 
3.6231262447810506

>  <TransFSScore_50nM>  (30) 
0.012381

>  <TransFSScore_1uM>  (30) 
0.03458

>  <TransFSScore_10nM>  (30) 
0.0065279999999999999

>  <TransFSScore_200nM>  (30) 
0.0041000000000000003

>  <TransFSScore>  (30) 
0.01439725

>  <FeatureSteinScore>  (30) 
0.33563816560561049

$$$$
Brc1ccc(-c2csc3nccn23)cc1
     RDKit          3D

 15 17  0  0  0  0  0  0  0  0999 V2000
   12.3341   -1.6330   21.9392 Br  0  0  0  0  0  0  0  0  0  0  0  0
   12.1997    0.1539   22.6240 C   0  0  0  0  0  0  0  0  0  0  0  0
   10.9669    0.6657   23.0449 C   0  0  0  0  0  0  0  0  0  0  0  0
   10.8788    1.9803   23.5191 C   0  0  0  0  0  0  0  0  0  0  0  0
   12.0218    2.7984   23.5710 C   0  0  0  0  0  0  0  0  0  0  0  0
   11.9260    4.1854   24.0775 C   0  0  0  0  0  0  0  0  0  0  0  0
   13.0023    5.0920   24.1145 C   0  0  0  0  0  0  0  0  0  0  0  0
   12.4803    6.5789   24.7901 S   0  0  0  0  0  0  0  0  0  0  0  0
   10.9274    5.9841   24.9864 C   0  0  0  0  0  0  0  0  0  0  0  0
    9.8259    6.4942   25.5553 N   0  0  0  0  0  0  0  0  0  0  0  0
    8.9395    5.4666   25.4926 C   0  0  0  0  0  0  0  0  0  0  0  0
    9.5432    4.3610   24.8891 C   0  0  0  0  0  0  0  0  0  0  0  0
   10.7941    4.7385   24.5792 N   0  0  0  0  0  0  0  0  0  0  0  0
   13.2566    2.2686   23.1607 C   0  0  0  0  0  0  0  0  0  0  0  0
   13.3431    0.9550   22.6897 C   0  0  0  0  0  0  0  0  0  0  0  0
  1  2  1  0
  2  3  2  0
  3  4  1  0
  4  5  2  0
  5  6  1  0
  5 14  1  0
  6  7  2  0
  7  8  1  0
  8  9  1  0
  9 10  2  0
 10 11  1  0
 11 12  2  0
 12 13  1  0
 13  6  1  0
 13  9  1  0
 14 15  2  0
 15  2  1  0
M  END
>  <Hit>  (31) 
Mpro-x0946_0

>  <Receptor>  (31) 
Mpro-x0874_0

>  <SCORE>  (31) 
-12.084199999999999

>  <SCORE.norm>  (31) 
-0.805616

>  <SCORE.heavy>  (31) 
15

>  <OrigSmiles>  (31) 
Brc1ccc(-c2csc3nccn23)cc1

>  <SuCOS_Score>  (31) 
0.51560340501624413

>  <Max_SuCOS_Score>  (31) 
0.51560340501624413

>  <Cum_SuCOS_Score>  (31) 
3.7221996333497156

>  <TransFSScore_50nM>  (31) 
0.034458999999999997

>  <TransFSScore_1uM>  (31) 
0.045275000000000003

>  <TransFSScore_10nM>  (31) 
0.0019430000000000001

>  <TransFSScore_200nM>  (31) 
0.0060910000000000001

>  <TransFSScore>  (31) 
0.021942

>  <FeatureSteinScore>  (31) 
0.35678009565834645

$$$$
Brc1ccc(-c2nc3ccccc3o2)cc1
     RDKit          3D

 16 18  0  0  0  0  0  0  0  0999 V2000
   13.4428   -1.7262   21.4738 Br  0  0  0  0  0  0  0  0  0  0  0  0
   12.7054   -0.0823   22.1327 C   0  0  0  0  0  0  0  0  0  0  0  0
   11.4418    0.3509   21.7143 C   0  0  0  0  0  0  0  0  0  0  0  0
   10.9273    1.5670   22.1812 C   0  0  0  0  0  0  0  0  0  0  0  0
   11.6717    2.3611   23.0714 C   0  0  0  0  0  0  0  0  0  0  0  0
   11.1260    3.6445   23.5577 C   0  0  0  0  0  0  0  0  0  0  0  0
   11.7888    4.4638   24.4198 N   0  0  0  0  0  0  0  0  0  0  0  0
   10.9212    5.4789   24.5664 C   0  0  0  0  0  0  0  0  0  0  0  0
   11.0662    6.6245   25.3452 C   0  0  0  0  0  0  0  0  0  0  0  0
   10.0096    7.5560   25.3377 C   0  0  0  0  0  0  0  0  0  0  0  0
    8.8512    7.3190   24.5608 C   0  0  0  0  0  0  0  0  0  0  0  0
    8.7405    6.1486   23.7856 C   0  0  0  0  0  0  0  0  0  0  0  0
    9.8057    5.2534   23.8200 C   0  0  0  0  0  0  0  0  0  0  0  0
    9.9408    4.1142   23.1979 O   0  0  0  0  0  0  0  0  0  0  0  0
   12.9360    1.9127   23.4911 C   0  0  0  0  0  0  0  0  0  0  0  0
   13.4469    0.6974   23.0247 C   0  0  0  0  0  0  0  0  0  0  0  0
  1  2  1  0
  2  3  2  0
  3  4  1  0
  4  5  2  0
  5  6  1  0
  5 15  1  0
  6  7  2  0
  7  8  1  0
  8  9  2  0
  9 10  1  0
 10 11  2  0
 11 12  1  0
 12 13  2  0
 13 14  1  0
 13  8  1  0
 14  6  1  0
 15 16  2  0
 16  2  1  0
M  END
>  <Hit>  (32) 
Mpro-x0946_0

>  <Receptor>  (32) 
Mpro-x1249_0

>  <SCORE>  (32) 
-10.3429

>  <SCORE.norm>  (32) 
-0.64643300000000004

>  <SCORE.heavy>  (32) 
16

>  <OrigSmiles>  (32) 
Brc1ccc(-c2nc3ccccc3o2)cc1

>  <SuCOS_Score>  (32) 
0.41553278715172509

>  <Max_SuCOS_Score>  (32) 
0.41553278715172509

>  <Cum_SuCOS_Score>  (32) 
3.2601579002334891

>  <TransFSScore_50nM>  (32) 
0.01585

>  <TransFSScore_1uM>  (32) 
0.073522000000000004

>  <TransFSScore_10nM>  (32) 
0.013466000000000001

>  <TransFSScore_200nM>  (32) 
0.050047000000000001

>  <TransFSScore>  (32) 
0.038221250000000005

>  <FeatureSteinScore>  (32) 
0.16660158092570043

$$$$
Brc1ccc(/C=N/Nc2nc3ccccc3o2)cc1
     RDKit          3D

 19 21  0  0  0  0  0  0  0  0999 V2000
   13.8885   -1.9358   21.7544 Br  0  0  0  0  0  0  0  0  0  0  0  0
   12.3054   -1.0033   22.3059 C   0  0  0  0  0  0  0  0  0  0  0  0
   11.0743   -1.2638   21.6929 C   0  0  0  0  0  0  0  0  0  0  0  0
    9.9314   -0.5557   22.0852 C   0  0  0  0  0  0  0  0  0  0  0  0
   10.0102    0.4205   23.0971 C   0  0  0  0  0  0  0  0  0  0  0  0
    8.8225    1.1857   23.5261 C   0  0  0  0  0  0  0  0  0  0  0  0
    7.7423    1.2036   22.8048 N   0  0  0  0  0  0  0  0  0  0  0  0
    6.5868    1.9296   23.1487 N   0  0  0  0  0  0  0  0  0  0  0  0
    5.4700    2.1013   22.2662 C   0  0  0  0  0  0  0  0  0  0  0  0
    4.3086    2.6849   22.6640 N   0  0  0  0  0  0  0  0  0  0  0  0
    3.5683    2.6107   21.5448 C   0  0  0  0  0  0  0  0  0  0  0  0
    2.2640    3.0593   21.3495 C   0  0  0  0  0  0  0  0  0  0  0  0
    1.6915    2.8671   20.0770 C   0  0  0  0  0  0  0  0  0  0  0  0
    2.4296    2.2384   19.0467 C   0  0  0  0  0  0  0  0  0  0  0  0
    3.7460    1.7967   19.2809 C   0  0  0  0  0  0  0  0  0  0  0  0
    4.2763    2.0052   20.5508 C   0  0  0  0  0  0  0  0  0  0  0  0
    5.4566    1.6890   21.0085 O   0  0  0  0  0  0  0  0  0  0  0  0
   11.2491    0.6675   23.7094 C   0  0  0  0  0  0  0  0  0  0  0  0
   12.3884   -0.0418   23.3170 C   0  0  0  0  0  0  0  0  0  0  0  0
  1  2  1  0
  2  3  2  0
  3  4  1  0
  4  5  2  0
  5  6  1  0
  5 18  1  0
  6  7  2  0
  7  8  1  0
  8  9  1  0
  9 10  2  0
 10 11  1  0
 11 12  2  0
 12 13  1  0
 13 14  2  0
 14 15  1  0
 15 16  2  0
 16 17  1  0
 16 11  1  0
 17  9  1  0
 18 19  2  0
 19  2  1  0
M  END
>  <Hit>  (33) 
Mpro-x0946_0

>  <Receptor>  (33) 
Mpro-x0387_0

>  <SCORE>  (33) 
-9.4110200000000006

>  <SCORE.norm>  (33) 
-0.49531700000000001

>  <SCORE.heavy>  (33) 
19

>  <OrigSmiles>  (33) 
Brc1ccc(/C=N/Nc2nc3ccccc3o2)cc1

>  <SuCOS_Score>  (33) 
0.16079443179333666

>  <Max_SuCOS_Score>  (33) 
0.41601434750638344

>  <Cum_SuCOS_Score>  (33) 
4.8177340368907018

>  <TransFSScore_50nM>  (33) 
0.000745

>  <TransFSScore_1uM>  (33) 
0.001702

>  <TransFSScore_10nM>  (33) 
1.0000000000000001e-05

>  <TransFSScore_200nM>  (33) 
0.0011249999999999999

>  <TransFSScore>  (33) 
0.00089550000000000003

>  <FeatureSteinScore>  (33) 
0.36032463987708474

$$$$
Brc1ccc(C2(C=C3CCNCC3)CC2)cc1
     RDKit          3D

 17 19  0  0  0  0  0  0  0  0999 V2000
   11.6422   -0.4421   22.9886 Br  0  0  0  0  0  0  0  0  0  0  0  0
   10.0257    0.5165   22.6036 C   0  0  0  0  0  0  0  0  0  0  0  0
    8.7767   -0.0460   22.8929 C   0  0  0  0  0  0  0  0  0  0  0  0
    7.6046    0.6521   22.5781 C   0  0  0  0  0  0  0  0  0  0  0  0
    7.6708    1.9211   21.9782 C   0  0  0  0  0  0  0  0  0  0  0  0
    6.3991    2.6423   21.6100 C   0  0  0  0  0  0  0  0  0  0  0  0
    5.4840    2.0039   20.5952 C   0  0  0  0  0  0  0  0  0  0  0  0
    5.9002    1.1907   19.5996 C   0  0  0  0  0  0  0  0  0  0  0  0
    7.3634    0.9462   19.2984 C   0  0  0  0  0  0  0  0  0  0  0  0
    7.5815   -0.4958   18.8238 C   0  0  0  0  0  0  0  0  0  0  0  0
    6.6587   -0.8479   17.7342 N   0  0  0  0  0  0  0  0  0  0  0  0
    5.2592   -0.7670   18.1788 C   0  0  0  0  0  0  0  0  0  0  0  0
    4.8926    0.6588   18.6076 C   0  0  0  0  0  0  0  0  0  0  0  0
    6.3129    4.1529   21.8135 C   0  0  0  0  0  0  0  0  0  0  0  0
    5.6545    3.2191   22.8130 C   0  0  0  0  0  0  0  0  0  0  0  0
    8.9286    2.4775   21.6930 C   0  0  0  0  0  0  0  0  0  0  0  0
   10.0982    1.7799   22.0093 C   0  0  0  0  0  0  0  0  0  0  0  0
  1  2  1  0
  2  3  2  0
  3  4  1  0
  4  5  2  0
  5  6  1  0
  5 16  1  0
  6  7  1  0
  6 14  1  0
  7  8  2  3
  8  9  1  0
  9 10  1  0
 10 11  1  0
 11 12  1  0
 12 13  1  0
 13  8  1  0
 14 15  1  0
 15  6  1  0
 16 17  2  0
 17  2  1  0
M  END
>  <Hit>  (34) 
Mpro-x0946_0

>  <Receptor>  (34) 
Mpro-x0387_0

>  <SCORE>  (34) 
-10.2805

>  <SCORE.norm>  (34) 
-0.60473399999999999

>  <SCORE.heavy>  (34) 
17

>  <OrigSmiles>  (34) 
Brc1ccc(C2(C=C3CCNCC3)CC2)cc1

>  <SuCOS_Score>  (34) 
0.094540075309306082

>  <Max_SuCOS_Score>  (34) 
0.39222298076220713

>  <Cum_SuCOS_Score>  (34) 
4.1031858330852353

>  <TransFSScore_50nM>  (34) 
0.053733000000000003

>  <TransFSScore_1uM>  (34) 
0.12481100000000001

>  <TransFSScore_10nM>  (34) 
0.022262000000000001

>  <TransFSScore_200nM>  (34) 
0.57042899999999996

>  <TransFSScore>  (34) 
0.19280875

>  <FeatureSteinScore>  (34) 
0.15666332553725146

$$$$
Brc1ccc(C=NNc2nc3ccccc3o2)cc1
     RDKit          3D

 19 21  0  0  0  0  0  0  0  0999 V2000
   12.8350   -1.3268   21.9053 Br  0  0  0  0  0  0  0  0  0  0  0  0
   11.2265   -0.4833   22.5230 C   0  0  0  0  0  0  0  0  0  0  0  0
   10.1102   -1.2498   22.8791 C   0  0  0  0  0  0  0  0  0  0  0  0
    8.9355   -0.6191   23.3081 C   0  0  0  0  0  0  0  0  0  0  0  0
    8.8624    0.7814   23.3694 C   0  0  0  0  0  0  0  0  0  0  0  0
    7.6216    1.4197   23.8514 C   0  0  0  0  0  0  0  0  0  0  0  0
    7.0212    2.3899   23.2230 N   0  0  0  0  0  0  0  0  0  0  0  0
    7.4822    2.9683   22.0258 N   0  0  0  0  0  0  0  0  0  0  0  0
    7.0849    2.1120   20.9529 C   0  0  0  0  0  0  0  0  0  0  0  0
    7.8482    1.0767   20.5105 N   0  0  0  0  0  0  0  0  0  0  0  0
    7.0712    0.5626   19.5417 C   0  0  0  0  0  0  0  0  0  0  0  0
    7.3371   -0.5318   18.7221 C   0  0  0  0  0  0  0  0  0  0  0  0
    6.3603   -0.8883   17.7720 C   0  0  0  0  0  0  0  0  0  0  0  0
    5.1579   -0.1501   17.6690 C   0  0  0  0  0  0  0  0  0  0  0  0
    4.9226    0.9504   18.5153 C   0  0  0  0  0  0  0  0  0  0  0  0
    5.9115    1.2718   19.4405 C   0  0  0  0  0  0  0  0  0  0  0  0
    5.9267    2.2323   20.3240 O   0  0  0  0  0  0  0  0  0  0  0  0
    9.9956    1.5416   23.0367 C   0  0  0  0  0  0  0  0  0  0  0  0
   11.1686    0.9108   22.6105 C   0  0  0  0  0  0  0  0  0  0  0  0
  1  2  1  0
  2  3  2  0
  3  4  1  0
  4  5  2  0
  5  6  1  0
  5 18  1  0
  6  7  2  0
  7  8  1  0
  8  9  1  0
  9 10  2  0
 10 11  1  0
 11 12  2  0
 12 13  1  0
 13 14  2  0
 14 15  1  0
 15 16  2  0
 16 17  1  0
 16 11  1  0
 17  9  1  0
 18 19  2  0
 19  2  1  0
M  END
>  <Hit>  (35) 
Mpro-x0946_0

>  <Receptor>  (35) 
Mpro-x0387_0

>  <SCORE>  (35) 
-10.629

>  <SCORE.norm>  (35) 
-0.55942000000000003

>  <SCORE.heavy>  (35) 
19

>  <OrigSmiles>  (35) 
Brc1ccc(C=NNc2nc3ccccc3o2)cc1

>  <SuCOS_Score>  (35) 
0.13595615776035577

>  <Max_SuCOS_Score>  (35) 
0.458450127490727

>  <Cum_SuCOS_Score>  (35) 
5.6126620023668821

>  <TransFSScore_50nM>  (35) 
0.000242

>  <TransFSScore_1uM>  (35) 
0.0082369999999999995

>  <TransFSScore_10nM>  (35) 
1.0000000000000001e-05

>  <TransFSScore_200nM>  (35) 
0.001392

>  <TransFSScore>  (35) 
0.0024702499999999994

>  <FeatureSteinScore>  (35) 
0.46889775703208425

$$$$
Brc1ccc(CN2CCCc3ccccc32)nc1
     RDKit          3D

 18 20  0  0  0  0  0  0  0  0999 V2000
    8.4054   -5.5141   28.9493 Br  0  0  0  0  0  0  0  0  0  0  0  0
    8.8283   -4.8280   27.2182 C   0  0  0  0  0  0  0  0  0  0  0  0
    8.4333   -5.5160   26.0692 C   0  0  0  0  0  0  0  0  0  0  0  0
    8.7501   -5.0048   24.8091 C   0  0  0  0  0  0  0  0  0  0  0  0
    9.4572   -3.7976   24.7096 C   0  0  0  0  0  0  0  0  0  0  0  0
    9.8243   -3.2607   23.3387 C   0  0  0  0  0  0  0  0  0  0  0  0
   10.5568   -1.9691   23.3487 N   0  0  0  0  0  0  0  0  0  0  0  0
   11.9868   -2.1533   22.9774 C   0  0  0  0  0  0  0  0  0  0  0  0
   12.7665   -0.8421   22.7201 C   0  0  0  0  0  0  0  0  0  0  0  0
   12.0204    0.4219   23.1503 C   0  0  0  0  0  0  0  0  0  0  0  0
   10.6060    0.3885   22.6408 C   0  0  0  0  0  0  0  0  0  0  0  0
    9.9763    1.5578   22.1814 C   0  0  0  0  0  0  0  0  0  0  0  0
    8.6465    1.5189   21.7605 C   0  0  0  0  0  0  0  0  0  0  0  0
    7.9356    0.3195   21.8126 C   0  0  0  0  0  0  0  0  0  0  0  0
    8.5452   -0.8441   22.2907 C   0  0  0  0  0  0  0  0  0  0  0  0
    9.9036   -0.8336   22.6962 C   0  0  0  0  0  0  0  0  0  0  0  0
    9.8382   -3.1535   25.8496 N   0  0  0  0  0  0  0  0  0  0  0  0
    9.5404   -3.6339   27.0858 C   0  0  0  0  0  0  0  0  0  0  0  0
  1  2  1  0
  2  3  2  0
  3  4  1  0
  4  5  2  0
  5  6  1  0
  5 17  1  0
  6  7  1  0
  7  8  1  0
  8  9  1  0
  9 10  1  0
 10 11  1  0
 11 12  2  0
 12 13  1  0
 13 14  2  0
 14 15  1  0
 15 16  2  0
 16  7  1  0
 16 11  1  0
 17 18  2  0
 18  2  1  0
M  END
>  <Hit>  (36) 
Mpro-x0195_0

>  <Receptor>  (36) 
Mpro-x0387_0

>  <SCORE>  (36) 
-10.569900000000001

>  <SCORE.norm>  (36) 
-0.58721800000000002

>  <SCORE.heavy>  (36) 
18

>  <OrigSmiles>  (36) 
Brc1ccc(CN2CCCc3ccccc32)nc1

>  <SuCOS_Score>  (36) 
0.16242984156098997

>  <Max_SuCOS_Score>  (36) 
0.36798726134746862

>  <Cum_SuCOS_Score>  (36) 
4.7022908475413203

>  <TransFSScore_50nM>  (36) 
0.0063720000000000001

>  <TransFSScore_1uM>  (36) 
0.17891899999999999

>  <TransFSScore_10nM>  (36) 
0.001016

>  <TransFSScore_200nM>  (36) 
0.051131000000000003

>  <TransFSScore>  (36) 
0.059359499999999996

>  <FeatureSteinScore>  (36) 
0.30516600327245469

$$$$
Brc1ccc(CN2CCCc3ccccc32)s1
     RDKit          3D

 17 19  0  0  0  0  0  0  0  0999 V2000
    5.9379   -6.0488   20.1104 Br  0  0  0  0  0  0  0  0  0  0  0  0
    6.3561   -4.6023   21.2789 C   0  0  0  0  0  0  0  0  0  0  0  0
    5.4751   -3.6181   21.7020 C   0  0  0  0  0  0  0  0  0  0  0  0
    6.0647   -2.6818   22.5592 C   0  0  0  0  0  0  0  0  0  0  0  0
    7.4111   -2.9320   22.8053 C   0  0  0  0  0  0  0  0  0  0  0  0
    8.3166   -2.1004   23.6747 C   0  0  0  0  0  0  0  0  0  0  0  0
    9.4136   -1.4656   22.9062 N   0  0  0  0  0  0  0  0  0  0  0  0
   10.6716   -2.2412   22.9920 C   0  0  0  0  0  0  0  0  0  0  0  0
   11.8700   -1.5195   22.3794 C   0  0  0  0  0  0  0  0  0  0  0  0
   12.0454   -0.1526   23.0289 C   0  0  0  0  0  0  0  0  0  0  0  0
   10.7729    0.6428   22.9134 C   0  0  0  0  0  0  0  0  0  0  0  0
   10.8357    2.0331   22.6977 C   0  0  0  0  0  0  0  0  0  0  0  0
    9.6660    2.7815   22.5643 C   0  0  0  0  0  0  0  0  0  0  0  0
    8.4268    2.1549   22.6648 C   0  0  0  0  0  0  0  0  0  0  0  0
    8.3494    0.7795   22.8775 C   0  0  0  0  0  0  0  0  0  0  0  0
    9.5163   -0.0094   23.0159 C   0  0  0  0  0  0  0  0  0  0  0  0
    7.8637   -4.3181   21.9625 S   0  0  0  0  0  0  0  0  0  0  0  0
  1  2  1  0
  2  3  2  0
  3  4  1  0
  4  5  2  0
  5  6  1  0
  5 17  1  0
  6  7  1  0
  7  8  1  0
  8  9  1  0
  9 10  1  0
 10 11  1  0
 11 12  2  0
 12 13  1  0
 13 14  2  0
 14 15  1  0
 15 16  2  0
 16  7  1  0
 16 11  1  0
 17  2  1  0
M  END
>  <Hit>  (37) 
Mpro-x0195_0

>  <Receptor>  (37) 
Mpro-x0387_0

>  <SCORE>  (37) 
-10.946300000000001

>  <SCORE.norm>  (37) 
-0.64389799999999997

>  <SCORE.heavy>  (37) 
17

>  <OrigSmiles>  (37) 
Brc1ccc(CN2CCCc3ccccc32)s1

>  <SuCOS_Score>  (37) 
0.16800011226665412

>  <Max_SuCOS_Score>  (37) 
0.3526968423659817

>  <Cum_SuCOS_Score>  (37) 
3.7309167121003517

>  <TransFSScore_50nM>  (37) 
0.0042890000000000003

>  <TransFSScore_1uM>  (37) 
0.057026

>  <TransFSScore_10nM>  (37) 
0.0019480000000000001

>  <TransFSScore_200nM>  (37) 
0.017426000000000001

>  <TransFSScore>  (37) 
0.020172249999999999

>  <FeatureSteinScore>  (37) 
0.22929217454751863

$$$$
Brc1ccc(CNCCc2ccc3c(c2)OCO3)cc1
     RDKit          3D

 20 22  0  0  0  0  0  0  0  0999 V2000
   12.5897   -1.9951   22.3192 Br  0  0  0  0  0  0  0  0  0  0  0  0
   11.2485   -0.6471   22.5727 C   0  0  0  0  0  0  0  0  0  0  0  0
    9.8909   -0.9891   22.6074 C   0  0  0  0  0  0  0  0  0  0  0  0
    8.9209    0.0083   22.7687 C   0  0  0  0  0  0  0  0  0  0  0  0
    9.3009    1.3559   22.8874 C   0  0  0  0  0  0  0  0  0  0  0  0
    8.2651    2.4245   23.0982 C   0  0  0  0  0  0  0  0  0  0  0  0
    7.8650    2.9842   21.8009 N   0  0  0  0  0  0  0  0  0  0  0  0
    6.8422    4.0283   21.9579 C   0  0  0  0  0  0  0  0  0  0  0  0
    5.4520    3.3970   22.0816 C   0  0  0  0  0  0  0  0  0  0  0  0
    5.1678    2.5068   20.9026 C   0  0  0  0  0  0  0  0  0  0  0  0
    4.1293    2.8377   19.9939 C   0  0  0  0  0  0  0  0  0  0  0  0
    3.8784    2.0284   18.8708 C   0  0  0  0  0  0  0  0  0  0  0  0
    4.6850    0.9105   18.6827 C   0  0  0  0  0  0  0  0  0  0  0  0
    5.6871    0.5943   19.5412 C   0  0  0  0  0  0  0  0  0  0  0  0
    5.9686    1.3672   20.6641 C   0  0  0  0  0  0  0  0  0  0  0  0
    6.3201   -0.5541   19.1067 O   0  0  0  0  0  0  0  0  0  0  0  0
    5.6746   -0.9869   17.9009 C   0  0  0  0  0  0  0  0  0  0  0  0
    4.6374   -0.0239   17.6662 O   0  0  0  0  0  0  0  0  0  0  0  0
   10.6650    1.6874   22.8702 C   0  0  0  0  0  0  0  0  0  0  0  0
   11.6323    0.6904   22.7106 C   0  0  0  0  0  0  0  0  0  0  0  0
  1  2  1  0
  2  3  2  0
  3  4  1  0
  4  5  2  0
  5  6  1  0
  5 19  1  0
  6  7  1  0
  7  8  1  0
  8  9  1  0
  9 10  1  0
 10 11  2  0
 11 12  1  0
 12 13  2  0
 13 14  1  0
 14 15  2  0
 14 16  1  0
 15 10  1  0
 16 17  1  0
 17 18  1  0
 18 13  1  0
 19 20  2  0
 20  2  1  0
M  END
>  <Hit>  (38) 
Mpro-x0946_0

>  <Receptor>  (38) 
Mpro-x0387_0

>  <SCORE>  (38) 
-9.3360099999999999

>  <SCORE.norm>  (38) 
-0.46679999999999999

>  <SCORE.heavy>  (38) 
20

>  <OrigSmiles>  (38) 
Brc1ccc(CNCCc2ccc3c(c2)OCO3)cc1

>  <SuCOS_Score>  (38) 
0.14793653822424507

>  <Max_SuCOS_Score>  (38) 
0.47055088879429835

>  <Cum_SuCOS_Score>  (38) 
5.1068793705059701

>  <TransFSScore_50nM>  (38) 
0.00037800000000000003

>  <TransFSScore_1uM>  (38) 
0.0060070000000000002

>  <TransFSScore_10nM>  (38) 
9.2e-05

>  <TransFSScore_200nM>  (38) 
0.00044000000000000002

>  <TransFSScore>  (38) 
0.0017292500000000001

>  <FeatureSteinScore>  (38) 
0.36281034564283465

$$$$
Brc1ccc(CNCc2cn3ccnc3s2)cc1
     RDKit          3D

 18 20  0  0  0  0  0  0  0  0999 V2000
   13.7783   -1.9393   21.8972 Br  0  0  0  0  0  0  0  0  0  0  0  0
   12.1781   -1.2200   22.6731 C   0  0  0  0  0  0  0  0  0  0  0  0
   11.0766   -2.0456   22.9305 C   0  0  0  0  0  0  0  0  0  0  0  0
    9.9059   -1.5024   23.4747 C   0  0  0  0  0  0  0  0  0  0  0  0
    9.8249   -0.1284   23.7572 C   0  0  0  0  0  0  0  0  0  0  0  0
    8.5795    0.4492   24.3785 C   0  0  0  0  0  0  0  0  0  0  0  0
    7.6543    0.9158   23.3358 N   0  0  0  0  0  0  0  0  0  0  0  0
    7.0482   -0.2236   22.6332 C   0  0  0  0  0  0  0  0  0  0  0  0
    6.7597    0.1346   21.2075 C   0  0  0  0  0  0  0  0  0  0  0  0
    5.6217    0.8269   20.7637 C   0  0  0  0  0  0  0  0  0  0  0  0
    5.6869    1.0664   19.4378 N   0  0  0  0  0  0  0  0  0  0  0  0
    4.9432    1.6738   18.5040 C   0  0  0  0  0  0  0  0  0  0  0  0
    5.6637    1.5676   17.3103 C   0  0  0  0  0  0  0  0  0  0  0  0
    6.8297    0.9039   17.5348 N   0  0  0  0  0  0  0  0  0  0  0  0
    6.7771    0.6282   18.8459 C   0  0  0  0  0  0  0  0  0  0  0  0
    7.8405   -0.1291   19.8982 S   0  0  0  0  0  0  0  0  0  0  0  0
   10.9404    0.6883   23.5128 C   0  0  0  0  0  0  0  0  0  0  0  0
   12.1090    0.1444   22.9710 C   0  0  0  0  0  0  0  0  0  0  0  0
  1  2  1  0
  2  3  2  0
  3  4  1  0
  4  5  2  0
  5  6  1  0
  5 17  1  0
  6  7  1  0
  7  8  1  0
  8  9  1  0
  9 10  2  0
 10 11  1  0
 11 12  1  0
 12 13  2  0
 13 14  1  0
 14 15  2  0
 15 16  1  0
 15 11  1  0
 16  9  1  0
 17 18  2  0
 18  2  1  0
M  END
>  <Hit>  (39) 
Mpro-x0946_0

>  <Receptor>  (39) 
Mpro-x0387_0

>  <SCORE>  (39) 
-11.9877

>  <SCORE.norm>  (39) 
-0.66598400000000002

>  <SCORE.heavy>  (39) 
18

>  <OrigSmiles>  (39) 
Brc1ccc(CNCc2cn3ccnc3s2)cc1

>  <SuCOS_Score>  (39) 
0.1491176746981461

>  <Max_SuCOS_Score>  (39) 
0.53764755817649124

>  <Cum_SuCOS_Score>  (39) 
6.9596737515513754

>  <TransFSScore_50nM>  (39) 
0.0028419999999999999

>  <TransFSScore_1uM>  (39) 
0.0038219999999999999

>  <TransFSScore_10nM>  (39) 
0.001188

>  <TransFSScore_200nM>  (39) 
0.013984999999999999

>  <TransFSScore>  (39) 
0.0054592499999999997

>  <FeatureSteinScore>  (39) 
0.49719973113103377

$$$$
Brc1ccc(CNCc2cn3ccsc3n2)cc1
     RDKit          3D

 18 20  0  0  0  0  0  0  0  0999 V2000
   13.8391   -0.0248   22.8427 Br  0  0  0  0  0  0  0  0  0  0  0  0
   12.4432    1.2820   22.9977 C   0  0  0  0  0  0  0  0  0  0  0  0
   11.1113    0.8859   23.1717 C   0  0  0  0  0  0  0  0  0  0  0  0
   10.0988    1.8497   23.2566 C   0  0  0  0  0  0  0  0  0  0  0  0
   10.4105    3.2171   23.1660 C   0  0  0  0  0  0  0  0  0  0  0  0
    9.3305    4.2601   23.2778 C   0  0  0  0  0  0  0  0  0  0  0  0
    8.3614    4.1160   22.1837 N   0  0  0  0  0  0  0  0  0  0  0  0
    7.3938    3.0493   22.4674 C   0  0  0  0  0  0  0  0  0  0  0  0
    7.1334    2.2657   21.2208 C   0  0  0  0  0  0  0  0  0  0  0  0
    5.8849    2.0857   20.6155 C   0  0  0  0  0  0  0  0  0  0  0  0
    6.1001    1.2558   19.5864 N   0  0  0  0  0  0  0  0  0  0  0  0
    5.3717    0.6528   18.6238 C   0  0  0  0  0  0  0  0  0  0  0  0
    6.1700   -0.1747   17.8191 C   0  0  0  0  0  0  0  0  0  0  0  0
    7.7963   -0.1206   18.3686 S   0  0  0  0  0  0  0  0  0  0  0  0
    7.3812    0.9551   19.5834 C   0  0  0  0  0  0  0  0  0  0  0  0
    8.0801    1.5368   20.5693 N   0  0  0  0  0  0  0  0  0  0  0  0
   11.7497    3.6050   23.0030 C   0  0  0  0  0  0  0  0  0  0  0  0
   12.7596    2.6417   22.9198 C   0  0  0  0  0  0  0  0  0  0  0  0
  1  2  1  0
  2  3  2  0
  3  4  1  0
  4  5  2  0
  5  6  1  0
  5 17  1  0
  6  7  1  0
  7  8  1  0
  8  9  1  0
  9 10  2  0
 10 11  1  0
 11 12  1  0
 12 13  2  0
 13 14  1  0
 14 15  1  0
 15 16  2  0
 15 11  1  0
 16  9  1  0
 17 18  2  0
 18  2  1  0
M  END
>  <Hit>  (40) 
Mpro-x0946_0

>  <Receptor>  (40) 
Mpro-x0305_0

>  <SCORE>  (40) 
-13.848699999999999

>  <SCORE.norm>  (40) 
-0.76937100000000003

>  <SCORE.heavy>  (40) 
18

>  <OrigSmiles>  (40) 
Brc1ccc(CNCc2cn3ccsc3n2)cc1

>  <SuCOS_Score>  (40) 
0.48255269693731651

>  <Max_SuCOS_Score>  (40) 
0.48255269693731651

>  <Cum_SuCOS_Score>  (40) 
5.0769916116939386

>  <TransFSScore_50nM>  (40) 
0.0011230000000000001

>  <TransFSScore_1uM>  (40) 
0.0039569999999999996

>  <TransFSScore_10nM>  (40) 
9.2999999999999997e-05

>  <TransFSScore_200nM>  (40) 
0.020683

>  <TransFSScore>  (40) 
0.0064640000000000001

>  <FeatureSteinScore>  (40) 
0.38396862369660434

$$$$
Brc1ccc(CNCc2nc3ccccc3o2)cc1
     RDKit          3D

 19 21  0  0  0  0  0  0  0  0999 V2000
   13.7398    0.3036   22.9783 Br  0  0  0  0  0  0  0  0  0  0  0  0
   12.5267    1.7243   23.4146 C   0  0  0  0  0  0  0  0  0  0  0  0
   11.3492    1.4635   24.1260 C   0  0  0  0  0  0  0  0  0  0  0  0
   10.4589    2.5054   24.4132 C   0  0  0  0  0  0  0  0  0  0  0  0
   10.7391    3.8167   23.9918 C   0  0  0  0  0  0  0  0  0  0  0  0
    9.7900    4.9458   24.3158 C   0  0  0  0  0  0  0  0  0  0  0  0
    9.0224    5.3854   23.1348 N   0  0  0  0  0  0  0  0  0  0  0  0
    7.8225    4.5696   22.8741 C   0  0  0  0  0  0  0  0  0  0  0  0
    8.1714    3.1447   22.5560 C   0  0  0  0  0  0  0  0  0  0  0  0
    9.1648    2.7841   21.7054 N   0  0  0  0  0  0  0  0  0  0  0  0
    9.1114    1.4446   21.7189 C   0  0  0  0  0  0  0  0  0  0  0  0
    9.9030    0.5352   21.0220 C   0  0  0  0  0  0  0  0  0  0  0  0
    9.6388   -0.8350   21.2137 C   0  0  0  0  0  0  0  0  0  0  0  0
    8.6041   -1.2508   22.0854 C   0  0  0  0  0  0  0  0  0  0  0  0
    7.8245   -0.3002   22.7729 C   0  0  0  0  0  0  0  0  0  0  0  0
    8.1143    1.0441   22.5586 C   0  0  0  0  0  0  0  0  0  0  0  0
    7.5387    2.1024   23.0732 O   0  0  0  0  0  0  0  0  0  0  0  0
   11.9260    4.0695   23.2857 C   0  0  0  0  0  0  0  0  0  0  0  0
   12.8145    3.0283   23.0007 C   0  0  0  0  0  0  0  0  0  0  0  0
  1  2  1  0
  2  3  2  0
  3  4  1  0
  4  5  2  0
  5  6  1  0
  5 18  1  0
  6  7  1  0
  7  8  1  0
  8  9  1  0
  9 10  2  0
 10 11  1  0
 11 12  2  0
 12 13  1  0
 13 14  2  0
 14 15  1  0
 15 16  2  0
 16 17  1  0
 16 11  1  0
 17  9  1  0
 18 19  2  0
 19  2  1  0
M  END
>  <Hit>  (41) 
Mpro-x0946_0

>  <Receptor>  (41) 
Mpro-x1249_0

>  <SCORE>  (41) 
-15.147600000000001

>  <SCORE.norm>  (41) 
-0.79724300000000003

>  <SCORE.heavy>  (41) 
19

>  <OrigSmiles>  (41) 
Brc1ccc(CNCc2nc3ccccc3o2)cc1

>  <SuCOS_Score>  (41) 
0.57967772354211156

>  <Max_SuCOS_Score>  (41) 
0.57967772354211156

>  <Cum_SuCOS_Score>  (41) 
4.3599901720345153

>  <TransFSScore_50nM>  (41) 
0.0022920000000000002

>  <TransFSScore_1uM>  (41) 
0.002274

>  <TransFSScore_10nM>  (41) 
0.00076499999999999995

>  <TransFSScore_200nM>  (41) 
0.0081949999999999992

>  <TransFSScore>  (41) 
0.0033815

>  <FeatureSteinScore>  (41) 
0.32943900616845012

$$$$
Brc1ccc(CNc2nc3ccccc3o2)cc1
     RDKit          3D

 18 20  0  0  0  0  0  0  0  0999 V2000
   12.0036   -2.4153   23.0764 Br  0  0  0  0  0  0  0  0  0  0  0  0
   10.7833   -0.9363   23.1388 C   0  0  0  0  0  0  0  0  0  0  0  0
    9.4085   -1.1519   23.2958 C   0  0  0  0  0  0  0  0  0  0  0  0
    8.5266   -0.0641   23.3150 C   0  0  0  0  0  0  0  0  0  0  0  0
    9.0116    1.2464   23.1687 C   0  0  0  0  0  0  0  0  0  0  0  0
    8.0672    2.4188   23.2269 C   0  0  0  0  0  0  0  0  0  0  0  0
    8.0279    3.1094   21.9324 N   0  0  0  0  0  0  0  0  0  0  0  0
    7.4334    2.2554   20.9467 C   0  0  0  0  0  0  0  0  0  0  0  0
    6.0973    2.2368   20.6915 N   0  0  0  0  0  0  0  0  0  0  0  0
    6.0167    1.2886   19.7426 C   0  0  0  0  0  0  0  0  0  0  0  0
    4.8769    0.8290   19.0870 C   0  0  0  0  0  0  0  0  0  0  0  0
    5.0424   -0.1842   18.1226 C   0  0  0  0  0  0  0  0  0  0  0  0
    6.3278   -0.7050   17.8437 C   0  0  0  0  0  0  0  0  0  0  0  0
    7.4580   -0.2168   18.5271 C   0  0  0  0  0  0  0  0  0  0  0  0
    7.2540    0.7845   19.4721 C   0  0  0  0  0  0  0  0  0  0  0  0
    8.1295    1.3896   20.2274 O   0  0  0  0  0  0  0  0  0  0  0  0
   10.3931    1.4541   23.0301 C   0  0  0  0  0  0  0  0  0  0  0  0
   11.2727    0.3674   23.0126 C   0  0  0  0  0  0  0  0  0  0  0  0
  1  2  1  0
  2  3  2  0
  3  4  1  0
  4  5  2  0
  5  6  1  0
  5 17  1  0
  6  7  1  0
  7  8  1  0
  8  9  2  0
  9 10  1  0
 10 11  2  0
 11 12  1  0
 12 13  2  0
 13 14  1  0
 14 15  2  0
 15 16  1  0
 15 10  1  0
 16  8  1  0
 17 18  2  0
 18  2  1  0
M  END
>  <Hit>  (42) 
Mpro-x0946_0

>  <Receptor>  (42) 
Mpro-x0387_0

>  <SCORE>  (42) 
-11.6493

>  <SCORE.norm>  (42) 
-0.64718299999999995

>  <SCORE.heavy>  (42) 
18

>  <OrigSmiles>  (42) 
Brc1ccc(CNc2nc3ccccc3o2)cc1

>  <SuCOS_Score>  (42) 
0.11863722057635334

>  <Max_SuCOS_Score>  (42) 
0.44267849834089346

>  <Cum_SuCOS_Score>  (42) 
5.4391702946933798

>  <TransFSScore_50nM>  (42) 
0.0012470000000000001

>  <TransFSScore_1uM>  (42) 
0.021488

>  <TransFSScore_10nM>  (42) 
0.00067000000000000002

>  <TransFSScore_200nM>  (42) 
0.0097739999999999997

>  <TransFSScore>  (42) 
0.00829475

>  <FeatureSteinScore>  (42) 
0.51950977362774953

$$$$
Brc1ccc(CSc2nc3ccccc3o2)cc1
     RDKit          3D

 18 20  0  0  0  0  0  0  0  0999 V2000
   12.5382   -1.4296   21.8631 Br  0  0  0  0  0  0  0  0  0  0  0  0
   11.0246   -0.4048   22.4453 C   0  0  0  0  0  0  0  0  0  0  0  0
    9.7953   -1.0273   22.6955 C   0  0  0  0  0  0  0  0  0  0  0  0
    8.6900   -0.2626   23.0894 C   0  0  0  0  0  0  0  0  0  0  0  0
    8.8081    1.1289   23.2450 C   0  0  0  0  0  0  0  0  0  0  0  0
    7.6139    1.9537   23.6277 C   0  0  0  0  0  0  0  0  0  0  0  0
    7.4200    3.3263   22.4461 S   0  0  0  0  0  0  0  0  0  0  0  0
    6.9653    2.2428   21.0964 C   0  0  0  0  0  0  0  0  0  0  0  0
    7.8476    1.4440   20.4484 N   0  0  0  0  0  0  0  0  0  0  0  0
    7.0875    0.8296   19.5307 C   0  0  0  0  0  0  0  0  0  0  0  0
    7.4661   -0.1087   18.5738 C   0  0  0  0  0  0  0  0  0  0  0  0
    6.4626   -0.6045   17.7187 C   0  0  0  0  0  0  0  0  0  0  0  0
    5.1268   -0.1537   17.8432 C   0  0  0  0  0  0  0  0  0  0  0  0
    4.7825    0.7972   18.8238 C   0  0  0  0  0  0  0  0  0  0  0  0
    5.8001    1.2646   19.6504 C   0  0  0  0  0  0  0  0  0  0  0  0
    5.7337    2.1396   20.6233 O   0  0  0  0  0  0  0  0  0  0  0  0
   10.0438    1.7446   22.9899 C   0  0  0  0  0  0  0  0  0  0  0  0
   11.1468    0.9797   22.5983 C   0  0  0  0  0  0  0  0  0  0  0  0
  1  2  1  0
  2  3  2  0
  3  4  1  0
  4  5  2  0
  5  6  1  0
  5 17  1  0
  6  7  1  0
  7  8  1  0
  8  9  2  0
  9 10  1  0
 10 11  2  0
 11 12  1  0
 12 13  2  0
 13 14  1  0
 14 15  2  0
 15 16  1  0
 15 10  1  0
 16  8  1  0
 17 18  2  0
 18  2  1  0
M  END
>  <Hit>  (43) 
Mpro-x0946_0

>  <Receptor>  (43) 
Mpro-x0387_0

>  <SCORE>  (43) 
-10.871499999999999

>  <SCORE.norm>  (43) 
-0.60397299999999998

>  <SCORE.heavy>  (43) 
18

>  <OrigSmiles>  (43) 
Brc1ccc(CSc2nc3ccccc3o2)cc1

>  <SuCOS_Score>  (43) 
0.13330581075824666

>  <Max_SuCOS_Score>  (43) 
0.45281079783482014

>  <Cum_SuCOS_Score>  (43) 
5.3837023253018517

>  <TransFSScore_50nM>  (43) 
0.00077300000000000003

>  <TransFSScore_1uM>  (43) 
0.069433999999999996

>  <TransFSScore_10nM>  (43) 
0.002565

>  <TransFSScore_200nM>  (43) 
0.052306999999999999

>  <TransFSScore>  (43) 
0.031269749999999999

>  <FeatureSteinScore>  (43) 
0.39527511429762957

$$$$
Brc1ccc(NCCc2ccccn2)nc1
     RDKit          3D

 16 17  0  0  0  0  0  0  0  0999 V2000
   14.0458   -1.7236   20.2043 Br  0  0  0  0  0  0  0  0  0  0  0  0
   12.9467   -1.1007   21.6365 C   0  0  0  0  0  0  0  0  0  0  0  0
   13.1848    0.1446   22.2191 C   0  0  0  0  0  0  0  0  0  0  0  0
   12.3819    0.5849   23.2747 C   0  0  0  0  0  0  0  0  0  0  0  0
   11.3154   -0.2247   23.7183 C   0  0  0  0  0  0  0  0  0  0  0  0
   10.4856    0.1037   24.8530 N   0  0  0  0  0  0  0  0  0  0  0  0
   10.3730    1.5322   25.1868 C   0  0  0  0  0  0  0  0  0  0  0  0
    8.9687    2.0452   24.8400 C   0  0  0  0  0  0  0  0  0  0  0  0
    8.5595    1.5768   23.4740 C   0  0  0  0  0  0  0  0  0  0  0  0
    8.7652    2.3869   22.3471 C   0  0  0  0  0  0  0  0  0  0  0  0
    8.3427    1.9372   21.0945 C   0  0  0  0  0  0  0  0  0  0  0  0
    7.7153    0.6957   20.9772 C   0  0  0  0  0  0  0  0  0  0  0  0
    7.5161   -0.0796   22.1217 C   0  0  0  0  0  0  0  0  0  0  0  0
    7.9342    0.3747   23.3335 N   0  0  0  0  0  0  0  0  0  0  0  0
   11.1251   -1.4373   23.1325 N   0  0  0  0  0  0  0  0  0  0  0  0
   11.9006   -1.8868   22.1163 C   0  0  0  0  0  0  0  0  0  0  0  0
  1  2  1  0
  2  3  2  0
  3  4  1  0
  4  5  2  0
  5  6  1  0
  5 15  1  0
  6  7  1  0
  7  8  1  0
  8  9  1  0
  9 10  2  0
 10 11  1  0
 11 12  2  0
 12 13  1  0
 13 14  2  0
 14  9  1  0
 15 16  2  0
 16  2  1  0
M  END
>  <Hit>  (44) 
Mpro-x0305_0

>  <Receptor>  (44) 
Mpro-x0874_0

>  <SCORE>  (44) 
-11.5938

>  <SCORE.norm>  (44) 
-0.72460899999999995

>  <SCORE.heavy>  (44) 
16

>  <OrigSmiles>  (44) 
Brc1ccc(NCCc2ccccn2)nc1

>  <SuCOS_Score>  (44) 
0.4648759206222331

>  <Max_SuCOS_Score>  (44) 
0.4648759206222331

>  <Cum_SuCOS_Score>  (44) 
4.6975665056738052

>  <TransFSScore_50nM>  (44) 
0.0039699999999999996

>  <TransFSScore_1uM>  (44) 
0.033369999999999997

>  <TransFSScore_10nM>  (44) 
0.000638

>  <TransFSScore_200nM>  (44) 
0.061168

>  <TransFSScore>  (44) 
0.0247865

>  <FeatureSteinScore>  (44) 
0.25904717156418128

$$$$
Brc1ccc(NCc2ccc3c(c2)OCO3)cc1
     RDKit          3D

 18 20  0  0  0  0  0  0  0  0999 V2000
   11.2715   -2.6962   23.4742 Br  0  0  0  0  0  0  0  0  0  0  0  0
   10.4864   -1.0407   22.9061 C   0  0  0  0  0  0  0  0  0  0  0  0
    9.1210   -0.9651   22.6055 C   0  0  0  0  0  0  0  0  0  0  0  0
    8.5657    0.2436   22.1679 C   0  0  0  0  0  0  0  0  0  0  0  0
    9.3725    1.3869   22.0197 C   0  0  0  0  0  0  0  0  0  0  0  0
    8.7957    2.6390   21.5972 N   0  0  0  0  0  0  0  0  0  0  0  0
    8.3323    3.3995   22.7656 C   0  0  0  0  0  0  0  0  0  0  0  0
    6.8659    3.7182   22.6386 C   0  0  0  0  0  0  0  0  0  0  0  0
    6.4510    4.9961   22.1833 C   0  0  0  0  0  0  0  0  0  0  0  0
    5.0839    5.2892   22.0273 C   0  0  0  0  0  0  0  0  0  0  0  0
    4.1668    4.2853   22.3222 C   0  0  0  0  0  0  0  0  0  0  0  0
    4.5572    3.0568   22.7456 C   0  0  0  0  0  0  0  0  0  0  0  0
    5.8987    2.7257   22.9138 C   0  0  0  0  0  0  0  0  0  0  0  0
    3.4435    2.2665   22.9546 O   0  0  0  0  0  0  0  0  0  0  0  0
    2.2811    3.0481   22.6445 C   0  0  0  0  0  0  0  0  0  0  0  0
    2.7881    4.3293   22.2450 O   0  0  0  0  0  0  0  0  0  0  0  0
   10.7387    1.3031   22.3403 C   0  0  0  0  0  0  0  0  0  0  0  0
   11.2906    0.0958   22.7786 C   0  0  0  0  0  0  0  0  0  0  0  0
  1  2  1  0
  2  3  2  0
  3  4  1  0
  4  5  2  0
  5  6  1  0
  5 17  1  0
  6  7  1  0
  7  8  1  0
  8  9  2  0
  9 10  1  0
 10 11  2  0
 11 12  1  0
 12 13  2  0
 12 14  1  0
 13  8  1  0
 14 15  1  0
 15 16  1  0
 16 11  1  0
 17 18  2  0
 18  2  1  0
M  END
>  <Hit>  (45) 
Mpro-x0946_0

>  <Receptor>  (45) 
Mpro-x0387_0

>  <SCORE>  (45) 
-10.041499999999999

>  <SCORE.norm>  (45) 
-0.55785899999999999

>  <SCORE.heavy>  (45) 
18

>  <OrigSmiles>  (45) 
Brc1ccc(NCc2ccc3c(c2)OCO3)cc1

>  <SuCOS_Score>  (45) 
0.10300894551368933

>  <Max_SuCOS_Score>  (45) 
0.30709359080187537

>  <Cum_SuCOS_Score>  (45) 
3.3621178441286368

>  <TransFSScore_50nM>  (45) 
8.7000000000000001e-05

>  <TransFSScore_1uM>  (45) 
0.0013190000000000001

>  <TransFSScore_10nM>  (45) 
0.000301

>  <TransFSScore_200nM>  (45) 
0.00041100000000000002

>  <TransFSScore>  (45) 
0.00052950000000000002

>  <FeatureSteinScore>  (45) 
0.19276038473290696

$$$$
Brc1ccc(NN=Cc2ccc3c(c2)OCO3)cc1
     RDKit          3D

 19 21  0  0  0  0  0  0  0  0999 V2000
   13.7907   -1.9937   21.5656 Br  0  0  0  0  0  0  0  0  0  0  0  0
   12.2884   -1.2746   22.5174 C   0  0  0  0  0  0  0  0  0  0  0  0
   11.2772   -2.1170   22.9954 C   0  0  0  0  0  0  0  0  0  0  0  0
   10.1700   -1.5756   23.6604 C   0  0  0  0  0  0  0  0  0  0  0  0
   10.0691   -0.1872   23.8627 C   0  0  0  0  0  0  0  0  0  0  0  0
    8.9123    0.3726   24.5059 N   0  0  0  0  0  0  0  0  0  0  0  0
    7.9537    0.6374   23.5126 N   0  0  0  0  0  0  0  0  0  0  0  0
    7.6471   -0.2378   22.6048 C   0  0  0  0  0  0  0  0  0  0  0  0
    6.6378    0.0604   21.5706 C   0  0  0  0  0  0  0  0  0  0  0  0
    6.3137   -0.8857   20.5597 C   0  0  0  0  0  0  0  0  0  0  0  0
    5.3483   -0.5842   19.5816 C   0  0  0  0  0  0  0  0  0  0  0  0
    4.7301    0.6603   19.6405 C   0  0  0  0  0  0  0  0  0  0  0  0
    5.0333    1.5682   20.6015 C   0  0  0  0  0  0  0  0  0  0  0  0
    5.9816    1.3112   21.5876 C   0  0  0  0  0  0  0  0  0  0  0  0
    4.2717    2.7059   20.4164 O   0  0  0  0  0  0  0  0  0  0  0  0
    3.4380    2.4991   19.2674 C   0  0  0  0  0  0  0  0  0  0  0  0
    3.7626    1.1811   18.8031 O   0  0  0  0  0  0  0  0  0  0  0  0
   11.0882    0.6492   23.3757 C   0  0  0  0  0  0  0  0  0  0  0  0
   12.1935    0.1065   22.7136 C   0  0  0  0  0  0  0  0  0  0  0  0
  1  2  1  0
  2  3  2  0
  3  4  1  0
  4  5  2  0
  5  6  1  0
  5 18  1  0
  6  7  1  0
  7  8  2  0
  8  9  1  0
  9 10  2  0
 10 11  1  0
 11 12  2  0
 12 13  1  0
 13 14  2  0
 13 15  1  0
 14  9  1  0
 15 16  1  0
 16 17  1  0
 17 12  1  0
 18 19  2  0
 19  2  1  0
M  END
>  <Hit>  (46) 
Mpro-x0946_0

>  <Receptor>  (46) 
Mpro-x0387_0

>  <SCORE>  (46) 
-8.1684599999999996

>  <SCORE.norm>  (46) 
-0.429919

>  <SCORE.heavy>  (46) 
19

>  <OrigSmiles>  (46) 
Brc1ccc(NN=Cc2ccc3c(c2)OCO3)cc1

>  <SuCOS_Score>  (46) 
0.14471845336524936

>  <Max_SuCOS_Score>  (46) 
0.48933044433462292

>  <Cum_SuCOS_Score>  (46) 
5.7890165343203028

>  <TransFSScore_50nM>  (46) 
0.00013300000000000001

>  <TransFSScore_1uM>  (46) 
0.002238

>  <TransFSScore_10nM>  (46) 
9.0000000000000002e-06

>  <TransFSScore_200nM>  (46) 
0.00016200000000000001

>  <TransFSScore>  (46) 
0.00063549999999999989

>  <FeatureSteinScore>  (46) 
0.46911117308922773

$$$$
Brc1ccc(Nc2nc3ccccc3o2)cc1
     RDKit          3D

 17 19  0  0  0  0  0  0  0  0999 V2000
   12.6491   -1.7241   22.0584 Br  0  0  0  0  0  0  0  0  0  0  0  0
   11.2505   -0.4124   22.1186 C   0  0  0  0  0  0  0  0  0  0  0  0
   10.0669   -0.5981   21.3947 C   0  0  0  0  0  0  0  0  0  0  0  0
    9.0674    0.3826   21.4206 C   0  0  0  0  0  0  0  0  0  0  0  0
    9.2387    1.5546   22.1817 C   0  0  0  0  0  0  0  0  0  0  0  0
    8.2421    2.5900   22.2046 N   0  0  0  0  0  0  0  0  0  0  0  0
    6.9768    2.4948   21.5388 C   0  0  0  0  0  0  0  0  0  0  0  0
    5.9908    3.4145   21.7114 N   0  0  0  0  0  0  0  0  0  0  0  0
    5.0148    2.9184   20.9320 C   0  0  0  0  0  0  0  0  0  0  0  0
    3.7454    3.4467   20.7088 C   0  0  0  0  0  0  0  0  0  0  0  0
    2.8872    2.7398   19.8439 C   0  0  0  0  0  0  0  0  0  0  0  0
    3.3166    1.5379   19.2334 C   0  0  0  0  0  0  0  0  0  0  0  0
    4.6072    1.0333   19.4831 C   0  0  0  0  0  0  0  0  0  0  0  0
    5.4251    1.7605   20.3430 C   0  0  0  0  0  0  0  0  0  0  0  0
    6.6449    1.5027   20.7279 O   0  0  0  0  0  0  0  0  0  0  0  0
   10.4330    1.7327   22.8963 C   0  0  0  0  0  0  0  0  0  0  0  0
   11.4289    0.7517   22.8713 C   0  0  0  0  0  0  0  0  0  0  0  0
  1  2  1  0
  2  3  2  0
  3  4  1  0
  4  5  2  0
  5  6  1  0
  5 16  1  0
  6  7  1  0
  7  8  2  0
  8  9  1  0
  9 10  2  0
 10 11  1  0
 11 12  2  0
 12 13  1  0
 13 14  2  0
 14 15  1  0
 14  9  1  0
 15  7  1  0
 16 17  2  0
 17  2  1  0
M  END
>  <Hit>  (47) 
Mpro-x0946_0

>  <Receptor>  (47) 
Mpro-x0387_0

>  <SCORE>  (47) 
-10.7768

>  <SCORE.norm>  (47) 
-0.63393100000000002

>  <SCORE.heavy>  (47) 
17

>  <OrigSmiles>  (47) 
Brc1ccc(Nc2nc3ccccc3o2)cc1

>  <SuCOS_Score>  (47) 
0.1392577527645503

>  <Max_SuCOS_Score>  (47) 
0.30690203078494416

>  <Cum_SuCOS_Score>  (47) 
3.8981662167568172

>  <TransFSScore_50nM>  (47) 
0.0025820000000000001

>  <TransFSScore_1uM>  (47) 
0.050546000000000001

>  <TransFSScore_10nM>  (47) 
0.00051099999999999995

>  <TransFSScore_200nM>  (47) 
0.010636

>  <TransFSScore>  (47) 
0.01606875

>  <FeatureSteinScore>  (47) 
0.20179355387868597

$$$$
Brc1ccc(Oc2ncnc3[nH]ccc23)cc1
     RDKit          3D

 17 19  0  0  0  0  0  0  0  0999 V2000
    3.7368    1.9866   19.2771 Br  0  0  0  0  0  0  0  0  0  0  0  0
    5.4760    1.2158   19.4464 C   0  0  0  0  0  0  0  0  0  0  0  0
    6.0434    0.5243   18.3727 C   0  0  0  0  0  0  0  0  0  0  0  0
    7.3153   -0.0385   18.4944 C   0  0  0  0  0  0  0  0  0  0  0  0
    8.0257    0.0809   19.6998 C   0  0  0  0  0  0  0  0  0  0  0  0
    9.3100   -0.4471   19.8530 O   0  0  0  0  0  0  0  0  0  0  0  0
    9.7859   -1.0886   21.0051 C   0  0  0  0  0  0  0  0  0  0  0  0
   11.0794   -0.9469   21.4382 N   0  0  0  0  0  0  0  0  0  0  0  0
   11.5271   -1.5942   22.5623 C   0  0  0  0  0  0  0  0  0  0  0  0
   10.6916   -2.4095   23.2737 N   0  0  0  0  0  0  0  0  0  0  0  0
    9.4182   -2.5657   22.8374 C   0  0  0  0  0  0  0  0  0  0  0  0
    8.4685   -3.3274   23.4016 N   0  0  0  0  0  0  0  0  0  0  0  0
    7.3723   -3.1689   22.6225 C   0  0  0  0  0  0  0  0  0  0  0  0
    7.6363   -2.3022   21.5631 C   0  0  0  0  0  0  0  0  0  0  0  0
    8.9536   -1.9335   21.7268 C   0  0  0  0  0  0  0  0  0  0  0  0
    7.4603    0.7870   20.7653 C   0  0  0  0  0  0  0  0  0  0  0  0
    6.1874    1.3476   20.6418 C   0  0  0  0  0  0  0  0  0  0  0  0
  1  2  1  0
  2  3  2  0
  3  4  1  0
  4  5  2  0
  5  6  1  0
  5 16  1  0
  6  7  1  0
  7  8  2  0
  8  9  1  0
  9 10  2  0
 10 11  1  0
 11 12  1  0
 12 13  1  0
 13 14  2  0
 14 15  1  0
 15  7  1  0
 15 11  2  0
 16 17  2  0
 17  2  1  0
M  END
>  <Hit>  (48) 
Mpro-x0967_0

>  <Receptor>  (48) 
Mpro-x1249_0

>  <SCORE>  (48) 
-10.4231

>  <SCORE.norm>  (48) 
-0.61312599999999995

>  <SCORE.heavy>  (48) 
17

>  <OrigSmiles>  (48) 
Brc1ccc(Oc2ncnc3[nH]ccc23)cc1

>  <SuCOS_Score>  (48) 
0.28929385484030762

>  <Max_SuCOS_Score>  (48) 
0.4448252463576024

>  <Cum_SuCOS_Score>  (48) 
4.3911132085639757

>  <TransFSScore_50nM>  (48) 
0.029191999999999999

>  <TransFSScore_1uM>  (48) 
0.12895999999999999

>  <TransFSScore_10nM>  (48) 
0.0046010000000000001

>  <TransFSScore_200nM>  (48) 
0.120671

>  <TransFSScore>  (48) 
0.070856000000000002

>  <FeatureSteinScore>  (48) 
0.33785169674890148

$$$$
Brc1ccc(SCCc2nc3ccccc3o2)cc1
     RDKit          3D

 19 21  0  0  0  0  0  0  0  0999 V2000
   13.8031    0.3301   22.9245 Br  0  0  0  0  0  0  0  0  0  0  0  0
   12.4453    1.5322   23.5463 C   0  0  0  0  0  0  0  0  0  0  0  0
   11.4563    1.0946   24.4376 C   0  0  0  0  0  0  0  0  0  0  0  0
   10.4547    1.9777   24.8579 C   0  0  0  0  0  0  0  0  0  0  0  0
   10.4359    3.2949   24.3813 C   0  0  0  0  0  0  0  0  0  0  0  0
    9.1519    4.4253   24.8944 S   0  0  0  0  0  0  0  0  0  0  0  0
    8.6023    4.8472   23.1985 C   0  0  0  0  0  0  0  0  0  0  0  0
    7.6449    3.8003   22.6235 C   0  0  0  0  0  0  0  0  0  0  0  0
    8.3216    2.4745   22.4597 C   0  0  0  0  0  0  0  0  0  0  0  0
    9.3749    2.2619   21.6314 N   0  0  0  0  0  0  0  0  0  0  0  0
    9.6639    0.9674   21.8260 C   0  0  0  0  0  0  0  0  0  0  0  0
   10.6653    0.2010   21.2350 C   0  0  0  0  0  0  0  0  0  0  0  0
   10.7594   -1.1509   21.6192 C   0  0  0  0  0  0  0  0  0  0  0  0
    9.8620   -1.6902   22.5715 C   0  0  0  0  0  0  0  0  0  0  0  0
    8.8626   -0.8823   23.1483 C   0  0  0  0  0  0  0  0  0  0  0  0
    8.7997    0.4482   22.7444 C   0  0  0  0  0  0  0  0  0  0  0  0
    7.9736    1.3879   23.1323 O   0  0  0  0  0  0  0  0  0  0  0  0
   11.4360    3.7343   23.5087 C   0  0  0  0  0  0  0  0  0  0  0  0
   12.4366    2.8545   23.0903 C   0  0  0  0  0  0  0  0  0  0  0  0
  1  2  1  0
  2  3  2  0
  3  4  1  0
  4  5  2  0
  5  6  1  0
  5 18  1  0
  6  7  1  0
  7  8  1  0
  8  9  1  0
  9 10  2  0
 10 11  1  0
 11 12  2  0
 12 13  1  0
 13 14  2  0
 14 15  1  0
 15 16  2  0
 16 17  1  0
 16 11  1  0
 17  9  1  0
 18 19  2  0
 19  2  1  0
M  END
>  <Hit>  (49) 
Mpro-x0946_0

>  <Receptor>  (49) 
Mpro-x1249_0

>  <SCORE>  (49) 
-14.808199999999999

>  <SCORE.norm>  (49) 
-0.77937999999999996

>  <SCORE.heavy>  (49) 
19

>  <OrigSmiles>  (49) 
Brc1ccc(SCCc2nc3ccccc3o2)cc1

>  <SuCOS_Score>  (49) 
0.47846505472863332

>  <Max_SuCOS_Score>  (49) 
0.48816076433418759

>  <Cum_SuCOS_Score>  (49) 
4.777098729164547

>  <TransFSScore_50nM>  (49) 
0.0047479999999999996

>  <TransFSScore_1uM>  (49) 
0.038736

>  <TransFSScore_10nM>  (49) 
0.031343999999999997

>  <TransFSScore_200nM>  (49) 
0.029513999999999999

>  <TransFSScore>  (49) 
0.026085500000000001

>  <FeatureSteinScore>  (49) 
0.28731763226295776

$$$$
Brc1ccc2c(c1)CCCN2Cc1ccccc1
     RDKit          3D

 18 20  0  0  0  0  0  0  0  0999 V2000
    9.3056    4.3331   23.0891 Br  0  0  0  0  0  0  0  0  0  0  0  0
    9.5865    2.4594   23.3296 C   0  0  0  0  0  0  0  0  0  0  0  0
    8.5586    1.6550   23.8257 C   0  0  0  0  0  0  0  0  0  0  0  0
    8.7587    0.2829   24.0136 C   0  0  0  0  0  0  0  0  0  0  0  0
   10.0055   -0.3167   23.6972 C   0  0  0  0  0  0  0  0  0  0  0  0
   11.0276    0.5105   23.1857 C   0  0  0  0  0  0  0  0  0  0  0  0
   10.8203    1.8896   23.0114 C   0  0  0  0  0  0  0  0  0  0  0  0
   12.3643   -0.1116   22.8941 C   0  0  0  0  0  0  0  0  0  0  0  0
   12.1805   -1.4892   22.2533 C   0  0  0  0  0  0  0  0  0  0  0  0
   11.1148   -2.3743   22.9451 C   0  0  0  0  0  0  0  0  0  0  0  0
   10.3520   -1.7019   24.0316 N   0  0  0  0  0  0  0  0  0  0  0  0
    9.2114   -2.5362   24.4902 C   0  0  0  0  0  0  0  0  0  0  0  0
    9.4665   -3.1953   25.8290 C   0  0  0  0  0  0  0  0  0  0  0  0
    9.9234   -4.5228   25.8948 C   0  0  0  0  0  0  0  0  0  0  0  0
   10.1798   -5.1188   27.1335 C   0  0  0  0  0  0  0  0  0  0  0  0
    9.9851   -4.3950   28.3130 C   0  0  0  0  0  0  0  0  0  0  0  0
    9.5348   -3.0733   28.2560 C   0  0  0  0  0  0  0  0  0  0  0  0
    9.2774   -2.4733   27.0196 C   0  0  0  0  0  0  0  0  0  0  0  0
  1  2  1  0
  2  3  2  0
  3  4  1  0
  4  5  2  0
  5  6  1  0
  6  7  2  0
  6  8  1  0
  7  2  1  0
  8  9  1  0
  9 10  1  0
 10 11  1  0
 11 12  1  0
 11  5  1  0
 12 13  1  0
 13 14  2  0
 14 15  1  0
 15 16  2  0
 16 17  1  0
 17 18  2  0
 18 13  1  0
M  END
>  <Hit>  (50) 
Mpro-x0195_0

>  <Receptor>  (50) 
Mpro-x0387_0

>  <SCORE>  (50) 
-10.784599999999999

>  <SCORE.norm>  (50) 
-0.59914299999999998

>  <SCORE.heavy>  (50) 
18

>  <OrigSmiles>  (50) 
Brc1ccc2c(c1)CCCN2Cc1ccccc1

>  <SuCOS_Score>  (50) 
0.25335213465073203

>  <Max_SuCOS_Score>  (50) 
0.35360959960341865

>  <Cum_SuCOS_Score>  (50) 
4.5397130499199232

>  <TransFSScore_50nM>  (50) 
0.0028519999999999999

>  <TransFSScore_1uM>  (50) 
0.073603000000000002

>  <TransFSScore_10nM>  (50) 
0.042785999999999998

>  <TransFSScore_200nM>  (50) 
0.039195000000000001

>  <TransFSScore>  (50) 
0.039608999999999998

>  <FeatureSteinScore>  (50) 
0.24408667100594453

$$$$
Brc1ccc2c(c1)N(Cc1ccccc1)CCC2
     RDKit          3D

 18 20  0  0  0  0  0  0  0  0999 V2000
    9.2272    3.6907   25.0590 Br  0  0  0  0  0  0  0  0  0  0  0  0
   10.5182    2.5224   24.2726 C   0  0  0  0  0  0  0  0  0  0  0  0
   11.7808    3.0115   23.9327 C   0  0  0  0  0  0  0  0  0  0  0  0
   12.7241    2.1595   23.3585 C   0  0  0  0  0  0  0  0  0  0  0  0
   12.4056    0.8122   23.1188 C   0  0  0  0  0  0  0  0  0  0  0  0
   11.1404    0.2954   23.4690 C   0  0  0  0  0  0  0  0  0  0  0  0
   10.1968    1.1791   24.0473 C   0  0  0  0  0  0  0  0  0  0  0  0
   10.9481   -1.1538   23.3726 N   0  0  0  0  0  0  0  0  0  0  0  0
    9.5762   -1.6582   23.6622 C   0  0  0  0  0  0  0  0  0  0  0  0
    9.5383   -2.7313   24.7372 C   0  0  0  0  0  0  0  0  0  0  0  0
    8.8450   -2.5056   25.9410 C   0  0  0  0  0  0  0  0  0  0  0  0
    8.7708   -3.5057   26.9152 C   0  0  0  0  0  0  0  0  0  0  0  0
    9.3597   -4.7511   26.6866 C   0  0  0  0  0  0  0  0  0  0  0  0
   10.0100   -5.0035   25.4770 C   0  0  0  0  0  0  0  0  0  0  0  0
   10.0876   -4.0060   24.5003 C   0  0  0  0  0  0  0  0  0  0  0  0
   11.4203   -1.6979   22.0734 C   0  0  0  0  0  0  0  0  0  0  0  0
   12.7669   -1.1143   21.5754 C   0  0  0  0  0  0  0  0  0  0  0  0
   13.4270   -0.1323   22.5482 C   0  0  0  0  0  0  0  0  0  0  0  0
  1  2  1  0
  2  3  2  0
  3  4  1  0
  4  5  2  0
  5  6  1  0
  6  7  2  0
  6  8  1  0
  7  2  1  0
  8  9  1  0
  8 16  1  0
  9 10  1  0
 10 11  2  0
 11 12  1  0
 12 13  2  0
 13 14  1  0
 14 15  2  0
 15 10  1  0
 16 17  1  0
 17 18  1  0
 18  5  1  0
M  END
>  <Hit>  (51) 
Mpro-x0195_0

>  <Receptor>  (51) 
Mpro-x1249_0

>  <SCORE>  (51) 
-14.225899999999999

>  <SCORE.norm>  (51) 
-0.790327

>  <SCORE.heavy>  (51) 
18

>  <OrigSmiles>  (51) 
Brc1ccc2c(c1)N(Cc1ccccc1)CCC2

>  <SuCOS_Score>  (51) 
0.43259281207479727

>  <Max_SuCOS_Score>  (51) 
0.4804683064229317

>  <Cum_SuCOS_Score>  (51) 
5.4903659315899844

>  <TransFSScore_50nM>  (51) 
0.0069170000000000004

>  <TransFSScore_1uM>  (51) 
0.12231

>  <TransFSScore_10nM>  (51) 
0.011893000000000001

>  <TransFSScore_200nM>  (51) 
0.023404000000000001

>  <TransFSScore>  (51) 
0.041131000000000008

>  <FeatureSteinScore>  (51) 
0.49174694018558773

$$$$
Brc1cccc(-c2ccc3c(c2)OCO3)c1
     RDKit          3D

 16 18  0  0  0  0  0  0  0  0999 V2000
   13.6846   -1.7017   21.3188 Br  0  0  0  0  0  0  0  0  0  0  0  0
   12.2504   -0.5247   21.8076 C   0  0  0  0  0  0  0  0  0  0  0  0
   10.9190   -0.8910   21.5806 C   0  0  0  0  0  0  0  0  0  0  0  0
    9.8854   -0.0095   21.9151 C   0  0  0  0  0  0  0  0  0  0  0  0
   10.1764    1.2380   22.4764 C   0  0  0  0  0  0  0  0  0  0  0  0
   11.5113    1.6125   22.7161 C   0  0  0  0  0  0  0  0  0  0  0  0
   11.8261    2.9340   23.3158 C   0  0  0  0  0  0  0  0  0  0  0  0
   13.1315    3.4859   23.1990 C   0  0  0  0  0  0  0  0  0  0  0  0
   13.4355    4.7374   23.7646 C   0  0  0  0  0  0  0  0  0  0  0  0
   12.4214    5.4105   24.4365 C   0  0  0  0  0  0  0  0  0  0  0  0
   11.1731    4.8946   24.5547 C   0  0  0  0  0  0  0  0  0  0  0  0
   10.8293    3.6602   24.0117 C   0  0  0  0  0  0  0  0  0  0  0  0
   10.3773    5.7735   25.2639 O   0  0  0  0  0  0  0  0  0  0  0  0
   11.1769    6.9118   25.6139 C   0  0  0  0  0  0  0  0  0  0  0  0
   12.4744    6.6389   25.0664 O   0  0  0  0  0  0  0  0  0  0  0  0
   12.5441    0.7183   22.3775 C   0  0  0  0  0  0  0  0  0  0  0  0
  1  2  1  0
  2  3  2  0
  3  4  1  0
  4  5  2  0
  5  6  1  0
  6  7  1  0
  6 16  2  0
  7  8  2  0
  8  9  1  0
  9 10  2  0
 10 11  1  0
 11 12  2  0
 11 13  1  0
 12  7  1  0
 13 14  1  0
 14 15  1  0
 15 10  1  0
 16  2  1  0
M  END
>  <Hit>  (52) 
Mpro-x0946_0

>  <Receptor>  (52) 
Mpro-x1249_0

>  <SCORE>  (52) 
-12.565

>  <SCORE.norm>  (52) 
-0.78530999999999995

>  <SCORE.heavy>  (52) 
16

>  <OrigSmiles>  (52) 
Brc1cccc(-c2ccc3c(c2)OCO3)c1

>  <SuCOS_Score>  (52) 
0.44398064378719293

>  <Max_SuCOS_Score>  (52) 
0.44398064378719293

>  <Cum_SuCOS_Score>  (52) 
3.7695036550546224

>  <TransFSScore_50nM>  (52) 
0.12442300000000001

>  <TransFSScore_1uM>  (52) 
0.22303999999999999

>  <TransFSScore_10nM>  (52) 
0.011714

>  <TransFSScore_200nM>  (52) 
0.058173999999999997

>  <TransFSScore>  (52) 
0.10433774999999999

>  <FeatureSteinScore>  (52) 
0.36581286121895956

$$$$
Brc1cccc(-c2ccc3ncoc3c2)c1
     RDKit          3D

 16 18  0  0  0  0  0  0  0  0999 V2000
   13.6606   -1.6986   21.4094 Br  0  0  0  0  0  0  0  0  0  0  0  0
   12.2448   -0.4667   21.8081 C   0  0  0  0  0  0  0  0  0  0  0  0
   10.9160   -0.7863   21.5068 C   0  0  0  0  0  0  0  0  0  0  0  0
    9.8978    0.1346   21.7764 C   0  0  0  0  0  0  0  0  0  0  0  0
   10.2016    1.3751   22.3466 C   0  0  0  0  0  0  0  0  0  0  0  0
   11.5335    1.7029   22.6602 C   0  0  0  0  0  0  0  0  0  0  0  0
   11.8615    3.0162   23.2705 C   0  0  0  0  0  0  0  0  0  0  0  0
   13.1918    3.5221   23.2197 C   0  0  0  0  0  0  0  0  0  0  0  0
   13.5141    4.7660   23.7945 C   0  0  0  0  0  0  0  0  0  0  0  0
   12.4882    5.4750   24.4090 C   0  0  0  0  0  0  0  0  0  0  0  0
   12.5415    6.6677   25.0187 N   0  0  0  0  0  0  0  0  0  0  0  0
   11.2656    6.8734   25.4272 C   0  0  0  0  0  0  0  0  0  0  0  0
   10.4641    5.8731   25.0945 O   0  0  0  0  0  0  0  0  0  0  0  0
   11.2135    5.0026   24.4643 C   0  0  0  0  0  0  0  0  0  0  0  0
   10.8525    3.7789   23.9100 C   0  0  0  0  0  0  0  0  0  0  0  0
   12.5504    0.7691   22.3871 C   0  0  0  0  0  0  0  0  0  0  0  0
  1  2  1  0
  2  3  2  0
  3  4  1  0
  4  5  2  0
  5  6  1  0
  6  7  1  0
  6 16  2  0
  7  8  2  0
  8  9  1  0
  9 10  2  0
 10 11  1  0
 11 12  2  0
 12 13  1  0
 13 14  1  0
 14 15  2  0
 14 10  1  0
 15  7  1  0
 16  2  1  0
M  END
>  <Hit>  (53) 
Mpro-x0946_0

>  <Receptor>  (53) 
Mpro-x1249_0

>  <SCORE>  (53) 
-13.432399999999999

>  <SCORE.norm>  (53) 
-0.83952800000000005

>  <SCORE.heavy>  (53) 
16

>  <OrigSmiles>  (53) 
Brc1cccc(-c2ccc3ncoc3c2)c1

>  <SuCOS_Score>  (53) 
0.39722567681408988

>  <Max_SuCOS_Score>  (53) 
0.39722567681408988

>  <Cum_SuCOS_Score>  (53) 
3.5335358186534611

>  <TransFSScore_50nM>  (53) 
0.51051899999999995

>  <TransFSScore_1uM>  (53) 
0.61761600000000005

>  <TransFSScore_10nM>  (53) 
0.058019000000000001

>  <TransFSScore_200nM>  (53) 
0.30093999999999999

>  <TransFSScore>  (53) 
0.37177349999999998

>  <FeatureSteinScore>  (53) 
0.22964391461417336

$$$$
Brc1cccc(-c2cn3ccsc3n2)c1
     RDKit          3D

 15 17  0  0  0  0  0  0  0  0999 V2000
   12.0395   -0.2901   24.5466 Br  0  0  0  0  0  0  0  0  0  0  0  0
   10.8937    0.6618   23.3371 C   0  0  0  0  0  0  0  0  0  0  0  0
   11.0137    2.0488   23.2229 C   0  0  0  0  0  0  0  0  0  0  0  0
   10.2055    2.7506   22.3265 C   0  0  0  0  0  0  0  0  0  0  0  0
    9.2699    2.0719   21.5413 C   0  0  0  0  0  0  0  0  0  0  0  0
    9.1310    0.6743   21.6514 C   0  0  0  0  0  0  0  0  0  0  0  0
    8.1361   -0.0521   20.8232 C   0  0  0  0  0  0  0  0  0  0  0  0
    7.4361   -1.2106   21.1988 C   0  0  0  0  0  0  0  0  0  0  0  0
    6.6517   -1.5188   20.1586 N   0  0  0  0  0  0  0  0  0  0  0  0
    5.7463   -2.4673   19.8401 C   0  0  0  0  0  0  0  0  0  0  0  0
    5.2214   -2.2643   18.5547 C   0  0  0  0  0  0  0  0  0  0  0  0
    5.9336   -0.8672   17.8543 S   0  0  0  0  0  0  0  0  0  0  0  0
    6.8602   -0.6159   19.2268 C   0  0  0  0  0  0  0  0  0  0  0  0
    7.7609    0.3180   19.5642 N   0  0  0  0  0  0  0  0  0  0  0  0
    9.9528   -0.0246   22.5591 C   0  0  0  0  0  0  0  0  0  0  0  0
  1  2  1  0
  2  3  2  0
  3  4  1  0
  4  5  2  0
  5  6  1  0
  6  7  1  0
  6 15  2  0
  7  8  2  0
  8  9  1  0
  9 10  1  0
 10 11  2  0
 11 12  1  0
 12 13  1  0
 13 14  2  0
 13  9  1  0
 14  7  1  0
 15  2  1  0
M  END
>  <Hit>  (54) 
Mpro-x0946_0

>  <Receptor>  (54) 
Mpro-x0387_0

>  <SCORE>  (54) 
-10.899900000000001

>  <SCORE.norm>  (54) 
-0.72665800000000003

>  <SCORE.heavy>  (54) 
15

>  <OrigSmiles>  (54) 
Brc1cccc(-c2cn3ccsc3n2)c1

>  <SuCOS_Score>  (54) 
0.14208046134708241

>  <Max_SuCOS_Score>  (54) 
0.30536112762155493

>  <Cum_SuCOS_Score>  (54) 
3.6786488682317455

>  <TransFSScore_50nM>  (54) 
0.0075290000000000001

>  <TransFSScore_1uM>  (54) 
0.029260000000000001

>  <TransFSScore_10nM>  (54) 
0.000571

>  <TransFSScore_200nM>  (54) 
0.13209899999999999

>  <TransFSScore>  (54) 
0.04236475

>  <FeatureSteinScore>  (54) 
0.14172141922084075

$$$$
Brc1cccc(-c2nc3ccccc3o2)c1
     RDKit          3D

 16 18  0  0  0  0  0  0  0  0999 V2000
   12.0770   -1.5619   22.7370 Br  0  0  0  0  0  0  0  0  0  0  0  0
   10.5699   -0.5932   22.0493 C   0  0  0  0  0  0  0  0  0  0  0  0
    9.6617   -1.2115   21.1828 C   0  0  0  0  0  0  0  0  0  0  0  0
    8.5839   -0.4845   20.6673 C   0  0  0  0  0  0  0  0  0  0  0  0
    8.4093    0.8590   21.0147 C   0  0  0  0  0  0  0  0  0  0  0  0
    9.3116    1.4878   21.8906 C   0  0  0  0  0  0  0  0  0  0  0  0
    9.1057    2.9117   22.2481 C   0  0  0  0  0  0  0  0  0  0  0  0
    9.9074    3.6298   23.0809 N   0  0  0  0  0  0  0  0  0  0  0  0
    9.3344    4.8421   23.0985 C   0  0  0  0  0  0  0  0  0  0  0  0
    9.7334    5.9828   23.7912 C   0  0  0  0  0  0  0  0  0  0  0  0
    8.9491    7.1427   23.6380 C   0  0  0  0  0  0  0  0  0  0  0  0
    7.8033    7.1288   22.8075 C   0  0  0  0  0  0  0  0  0  0  0  0
    7.4322    5.9548   22.1232 C   0  0  0  0  0  0  0  0  0  0  0  0
    8.2316    4.8291   22.2994 C   0  0  0  0  0  0  0  0  0  0  0  0
    8.0978    3.6353   21.7790 O   0  0  0  0  0  0  0  0  0  0  0  0
   10.3929    0.7478   22.4060 C   0  0  0  0  0  0  0  0  0  0  0  0
  1  2  1  0
  2  3  2  0
  3  4  1  0
  4  5  2  0
  5  6  1  0
  6  7  1  0
  6 16  2  0
  7  8  2  0
  8  9  1  0
  9 10  2  0
 10 11  1  0
 11 12  2  0
 12 13  1  0
 13 14  2  0
 14 15  1  0
 14  9  1  0
 15  7  1  0
 16  2  1  0
M  END
>  <Hit>  (55) 
Mpro-x0946_0

>  <Receptor>  (55) 
Mpro-x0387_0

>  <SCORE>  (55) 
-10.0678

>  <SCORE.norm>  (55) 
-0.62923799999999996

>  <SCORE.heavy>  (55) 
16

>  <OrigSmiles>  (55) 
Brc1cccc(-c2nc3ccccc3o2)c1

>  <SuCOS_Score>  (55) 
0.19535887749595249

>  <Max_SuCOS_Score>  (55) 
0.26576519827971201

>  <Cum_SuCOS_Score>  (55) 
3.1573287996494459

>  <TransFSScore_50nM>  (55) 
0.041611000000000002

>  <TransFSScore_1uM>  (55) 
0.024423

>  <TransFSScore_10nM>  (55) 
0.0038609999999999998

>  <TransFSScore_200nM>  (55) 
0.020097

>  <TransFSScore>  (55) 
0.022498000000000004

>  <FeatureSteinScore>  (55) 
0.087137720388319365

$$$$
Brc1cccc(/C=C/c2nc3ccccc3o2)c1
     RDKit          3D

 18 20  0  0  0  0  0  0  0  0999 V2000
   13.8737   -1.5731   21.1000 Br  0  0  0  0  0  0  0  0  0  0  0  0
   12.6608   -0.3184   21.8977 C   0  0  0  0  0  0  0  0  0  0  0  0
   13.0945    0.4778   22.9608 C   0  0  0  0  0  0  0  0  0  0  0  0
   12.2339    1.4203   23.5273 C   0  0  0  0  0  0  0  0  0  0  0  0
   10.9330    1.5685   23.0393 C   0  0  0  0  0  0  0  0  0  0  0  0
   10.4745    0.7613   21.9832 C   0  0  0  0  0  0  0  0  0  0  0  0
    9.0886    0.9592   21.4918 C   0  0  0  0  0  0  0  0  0  0  0  0
    8.2413    1.8647   21.9973 C   0  0  0  0  0  0  0  0  0  0  0  0
    6.8809    2.0283   21.4646 C   0  0  0  0  0  0  0  0  0  0  0  0
    6.4323    1.3446   20.3783 N   0  0  0  0  0  0  0  0  0  0  0  0
    5.1739    1.8015   20.2616 C   0  0  0  0  0  0  0  0  0  0  0  0
    4.2191    1.4492   19.3107 C   0  0  0  0  0  0  0  0  0  0  0  0
    2.9569    2.0691   19.3929 C   0  0  0  0  0  0  0  0  0  0  0  0
    2.6875    3.0130   20.4117 C   0  0  0  0  0  0  0  0  0  0  0  0
    3.6780    3.3443   21.3562 C   0  0  0  0  0  0  0  0  0  0  0  0
    4.9118    2.7102   21.2410 C   0  0  0  0  0  0  0  0  0  0  0  0
    5.9764    2.8455   21.9835 O   0  0  0  0  0  0  0  0  0  0  0  0
   11.3556   -0.1806   21.4077 C   0  0  0  0  0  0  0  0  0  0  0  0
  1  2  1  0
  2  3  2  0
  3  4  1  0
  4  5  2  0
  5  6  1  0
  6  7  1  0
  6 18  2  0
  7  8  2  0
  8  9  1  0
  9 10  2  0
 10 11  1  0
 11 12  2  0
 12 13  1  0
 13 14  2  0
 14 15  1  0
 15 16  2  0
 16 17  1  0
 16 11  1  0
 17  9  1  0
 18  2  1  0
M  END
>  <Hit>  (56) 
Mpro-x0946_0

>  <Receptor>  (56) 
Mpro-x1249_0

>  <SCORE>  (56) 
-11.987500000000001

>  <SCORE.norm>  (56) 
-0.66597300000000004

>  <SCORE.heavy>  (56) 
18

>  <OrigSmiles>  (56) 
Brc1cccc(/C=C/c2nc3ccccc3o2)c1

>  <SuCOS_Score>  (56) 
0.19337462838819022

>  <Max_SuCOS_Score>  (56) 
0.29962567117765593

>  <Cum_SuCOS_Score>  (56) 
4.0788124440927334

>  <TransFSScore_50nM>  (56) 
0.0028059999999999999

>  <TransFSScore_1uM>  (56) 
0.074632000000000004

>  <TransFSScore_10nM>  (56) 
0.0065409999999999999

>  <TransFSScore_200nM>  (56) 
0.028822

>  <TransFSScore>  (56) 
0.028200250000000003

>  <FeatureSteinScore>  (56) 
0.10544927904023731

$$$$
Brc1cccc(C=Cc2nc3ccccc3o2)c1
     RDKit          3D

 18 20  0  0  0  0  0  0  0  0999 V2000
   13.8132   -1.6399   21.1395 Br  0  0  0  0  0  0  0  0  0  0  0  0
   12.8688   -0.2000   21.9860 C   0  0  0  0  0  0  0  0  0  0  0  0
   13.5348    0.6128   22.9069 C   0  0  0  0  0  0  0  0  0  0  0  0
   12.8703    1.6863   23.5036 C   0  0  0  0  0  0  0  0  0  0  0  0
   11.5348    1.9501   23.1887 C   0  0  0  0  0  0  0  0  0  0  0  0
   10.8443    1.1297   22.2791 C   0  0  0  0  0  0  0  0  0  0  0  0
    9.4299    1.4526   21.9683 C   0  0  0  0  0  0  0  0  0  0  0  0
    8.7263    0.8575   20.9962 C   0  0  0  0  0  0  0  0  0  0  0  0
    7.3218    1.2066   20.7379 C   0  0  0  0  0  0  0  0  0  0  0  0
    6.5817    1.9528   21.6006 N   0  0  0  0  0  0  0  0  0  0  0  0
    5.3966    2.0141   20.9701 C   0  0  0  0  0  0  0  0  0  0  0  0
    4.2352    2.6587   21.3893 C   0  0  0  0  0  0  0  0  0  0  0  0
    3.1070    2.5819   20.5494 C   0  0  0  0  0  0  0  0  0  0  0  0
    3.1705    1.8710   19.3277 C   0  0  0  0  0  0  0  0  0  0  0  0
    4.3626    1.2316   18.9367 C   0  0  0  0  0  0  0  0  0  0  0  0
    5.4548    1.3307   19.7938 C   0  0  0  0  0  0  0  0  0  0  0  0
    6.6532    0.8324   19.6572 O   0  0  0  0  0  0  0  0  0  0  0  0
   11.5276    0.0539   21.6706 C   0  0  0  0  0  0  0  0  0  0  0  0
  1  2  1  0
  2  3  2  0
  3  4  1  0
  4  5  2  0
  5  6  1  0
  6  7  1  0
  6 18  2  0
  7  8  2  0
  8  9  1  0
  9 10  2  0
 10 11  1  0
 11 12  2  0
 12 13  1  0
 13 14  2  0
 14 15  1  0
 15 16  2  0
 16 17  1  0
 16 11  1  0
 17  9  1  0
 18  2  1  0
M  END
>  <Hit>  (57) 
Mpro-x0946_0

>  <Receptor>  (57) 
Mpro-x0874_0

>  <SCORE>  (57) 
-13.838100000000001

>  <SCORE.norm>  (57) 
-0.76878199999999997

>  <SCORE.heavy>  (57) 
18

>  <OrigSmiles>  (57) 
Brc1cccc(C=Cc2nc3ccccc3o2)c1

>  <SuCOS_Score>  (57) 
0.21776557963464641

>  <Max_SuCOS_Score>  (57) 
0.2988830645682769

>  <Cum_SuCOS_Score>  (57) 
4.2462729212598731

>  <TransFSScore_50nM>  (57) 
0.0081580000000000003

>  <TransFSScore_1uM>  (57) 
0.060666999999999999

>  <TransFSScore_10nM>  (57) 
0.021350000000000001

>  <TransFSScore_200nM>  (57) 
0.089734999999999995

>  <TransFSScore>  (57) 
0.044977500000000004

>  <FeatureSteinScore>  (57) 
0.12572919627067294

$$$$
Brc1cccc(CNCCc2ccc3c(c2)OCO3)c1
     RDKit          3D

 20 22  0  0  0  0  0  0  0  0999 V2000
   13.7895   -1.9987   22.0343 Br  0  0  0  0  0  0  0  0  0  0  0  0
   12.0201   -1.3499   22.3930 C   0  0  0  0  0  0  0  0  0  0  0  0
   10.9915   -2.2357   22.7371 C   0  0  0  0  0  0  0  0  0  0  0  0
    9.6995   -1.7500   22.9708 C   0  0  0  0  0  0  0  0  0  0  0  0
    9.4312   -0.3813   22.8625 C   0  0  0  0  0  0  0  0  0  0  0  0
   10.4596    0.5117   22.5221 C   0  0  0  0  0  0  0  0  0  0  0  0
   10.1789    1.9934   22.4379 C   0  0  0  0  0  0  0  0  0  0  0  0
    8.8545    2.2707   21.8553 N   0  0  0  0  0  0  0  0  0  0  0  0
    7.8485    2.5647   22.8894 C   0  0  0  0  0  0  0  0  0  0  0  0
    6.4368    2.2469   22.3816 C   0  0  0  0  0  0  0  0  0  0  0  0
    6.2273    0.7593   22.3002 C   0  0  0  0  0  0  0  0  0  0  0  0
    6.1976   -0.0231   23.4836 C   0  0  0  0  0  0  0  0  0  0  0  0
    6.0391   -1.4191   23.4127 C   0  0  0  0  0  0  0  0  0  0  0  0
    5.9249   -1.9968   22.1521 C   0  0  0  0  0  0  0  0  0  0  0  0
    5.9641   -1.2561   21.0159 C   0  0  0  0  0  0  0  0  0  0  0  0
    6.1186    0.1270   21.0412 C   0  0  0  0  0  0  0  0  0  0  0  0
    5.8344   -2.0872   19.9200 O   0  0  0  0  0  0  0  0  0  0  0  0
    5.7042   -3.4335   20.3980 C   0  0  0  0  0  0  0  0  0  0  0  0
    5.7673   -3.3302   21.8274 O   0  0  0  0  0  0  0  0  0  0  0  0
   11.7554    0.0197   22.2929 C   0  0  0  0  0  0  0  0  0  0  0  0
  1  2  1  0
  2  3  2  0
  3  4  1  0
  4  5  2  0
  5  6  1  0
  6  7  1  0
  6 20  2  0
  7  8  1  0
  8  9  1  0
  9 10  1  0
 10 11  1  0
 11 12  2  0
 12 13  1  0
 13 14  2  0
 14 15  1  0
 15 16  2  0
 15 17  1  0
 16 11  1  0
 17 18  1  0
 18 19  1  0
 19 14  1  0
 20  2  1  0
M  END
>  <Hit>  (58) 
Mpro-x0946_0

>  <Receptor>  (58) 
Mpro-x0387_0

>  <SCORE>  (58) 
-8.5511099999999995

>  <SCORE.norm>  (58) 
-0.42755500000000002

>  <SCORE.heavy>  (58) 
20

>  <OrigSmiles>  (58) 
Brc1cccc(CNCCc2ccc3c(c2)OCO3)c1

>  <SuCOS_Score>  (58) 
0.13991625414628178

>  <Max_SuCOS_Score>  (58) 
0.39022545365061667

>  <Cum_SuCOS_Score>  (58) 
4.7232858517319363

>  <TransFSScore_50nM>  (58) 
0.00056499999999999996

>  <TransFSScore_1uM>  (58) 
0.0059069999999999999

>  <TransFSScore_10nM>  (58) 
0.000292

>  <TransFSScore_200nM>  (58) 
0.00088000000000000003

>  <TransFSScore>  (58) 
0.0019109999999999999

>  <FeatureSteinScore>  (58) 
0.38262487576612242

$$$$
Brc1cccc(CNCc2ccc3c(c2)OCO3)c1
     RDKit          3D

 19 21  0  0  0  0  0  0  0  0999 V2000
   13.9070   -1.5881   21.8429 Br  0  0  0  0  0  0  0  0  0  0  0  0
   12.2547   -0.9100   22.5435 C   0  0  0  0  0  0  0  0  0  0  0  0
   12.2788    0.0551   23.5551 C   0  0  0  0  0  0  0  0  0  0  0  0
   11.0832    0.5826   24.0511 C   0  0  0  0  0  0  0  0  0  0  0  0
    9.8568    0.1452   23.5430 C   0  0  0  0  0  0  0  0  0  0  0  0
    9.8223   -0.8389   22.5404 C   0  0  0  0  0  0  0  0  0  0  0  0
    8.5083   -1.2870   21.9622 C   0  0  0  0  0  0  0  0  0  0  0  0
    8.5996   -1.3228   20.4988 N   0  0  0  0  0  0  0  0  0  0  0  0
    8.5726    0.0376   19.9512 C   0  0  0  0  0  0  0  0  0  0  0  0
    7.1584    0.4189   19.6139 C   0  0  0  0  0  0  0  0  0  0  0  0
    6.6902    0.3044   18.2795 C   0  0  0  0  0  0  0  0  0  0  0  0
    5.3797    0.6934   17.9467 C   0  0  0  0  0  0  0  0  0  0  0  0
    4.5749    1.1997   18.9626 C   0  0  0  0  0  0  0  0  0  0  0  0
    5.0206    1.3244   20.2381 C   0  0  0  0  0  0  0  0  0  0  0  0
    6.3090    0.9511   20.6098 C   0  0  0  0  0  0  0  0  0  0  0  0
    4.0183    1.8569   21.0257 O   0  0  0  0  0  0  0  0  0  0  0  0
    2.8713    2.0791   20.1933 C   0  0  0  0  0  0  0  0  0  0  0  0
    3.2700    1.6465   18.8849 O   0  0  0  0  0  0  0  0  0  0  0  0
   11.0283   -1.3577   22.0354 C   0  0  0  0  0  0  0  0  0  0  0  0
  1  2  1  0
  2  3  2  0
  3  4  1  0
  4  5  2  0
  5  6  1  0
  6  7  1  0
  6 19  2  0
  7  8  1  0
  8  9  1  0
  9 10  1  0
 10 11  2  0
 11 12  1  0
 12 13  2  0
 13 14  1  0
 14 15  2  0
 14 16  1  0
 15 10  1  0
 16 17  1  0
 17 18  1  0
 18 13  1  0
 19  2  1  0
M  END
>  <Hit>  (59) 
Mpro-x0946_0

>  <Receptor>  (59) 
Mpro-x0387_0

>  <SCORE>  (59) 
-11.7651

>  <SCORE.norm>  (59) 
-0.61921599999999999

>  <SCORE.heavy>  (59) 
19

>  <OrigSmiles>  (59) 
Brc1cccc(CNCc2ccc3c(c2)OCO3)c1

>  <SuCOS_Score>  (59) 
0.15701814484803453

>  <Max_SuCOS_Score>  (59) 
0.53929265242380464

>  <Cum_SuCOS_Score>  (59) 
6.5564521243396232

>  <TransFSScore_50nM>  (59) 
6.7000000000000002e-05

>  <TransFSScore_1uM>  (59) 
0.002676

>  <TransFSScore_10nM>  (59) 
0.00010399999999999999

>  <TransFSScore_200nM>  (59) 
0.00364

>  <TransFSScore>  (59) 
0.0016217499999999999

>  <FeatureSteinScore>  (59) 
0.51118107591137785

$$$$
Brc1cccc(CNc2nc3ccccc3o2)c1
     RDKit          3D

 18 20  0  0  0  0  0  0  0  0999 V2000
   12.8523   -1.7249   22.1295 Br  0  0  0  0  0  0  0  0  0  0  0  0
   10.9906   -1.2726   22.0274 C   0  0  0  0  0  0  0  0  0  0  0  0
   10.0492   -2.2175   21.6012 C   0  0  0  0  0  0  0  0  0  0  0  0
    8.6986   -1.8629   21.5011 C   0  0  0  0  0  0  0  0  0  0  0  0
    8.2843   -0.5671   21.8272 C   0  0  0  0  0  0  0  0  0  0  0  0
    9.2216    0.3787   22.2722 C   0  0  0  0  0  0  0  0  0  0  0  0
    8.7864    1.7859   22.5898 C   0  0  0  0  0  0  0  0  0  0  0  0
    8.4824    2.5187   21.3550 N   0  0  0  0  0  0  0  0  0  0  0  0
    7.0689    2.5013   21.1180 C   0  0  0  0  0  0  0  0  0  0  0  0
    6.2262    3.4572   21.5937 N   0  0  0  0  0  0  0  0  0  0  0  0
    5.0366    3.0116   21.1549 C   0  0  0  0  0  0  0  0  0  0  0  0
    3.7840    3.5914   21.3413 C   0  0  0  0  0  0  0  0  0  0  0  0
    2.6703    2.9324   20.7852 C   0  0  0  0  0  0  0  0  0  0  0  0
    2.8373    1.7252   20.0667 C   0  0  0  0  0  0  0  0  0  0  0  0
    4.1192    1.1672   19.8988 C   0  0  0  0  0  0  0  0  0  0  0  0
    5.1944    1.8481   20.4626 C   0  0  0  0  0  0  0  0  0  0  0  0
    6.4615    1.5361   20.4464 O   0  0  0  0  0  0  0  0  0  0  0  0
   10.5769    0.0210   22.3623 C   0  0  0  0  0  0  0  0  0  0  0  0
  1  2  1  0
  2  3  2  0
  3  4  1  0
  4  5  2  0
  5  6  1  0
  6  7  1  0
  6 18  2  0
  7  8  1  0
  8  9  1  0
  9 10  2  0
 10 11  1  0
 11 12  2  0
 12 13  1  0
 13 14  2  0
 14 15  1  0
 15 16  2  0
 16 17  1  0
 16 11  1  0
 17  9  1  0
 18  2  1  0
M  END
>  <Hit>  (60) 
Mpro-x0946_0

>  <Receptor>  (60) 
Mpro-x0387_0

>  <SCORE>  (60) 
-15.660399999999999

>  <SCORE.norm>  (60) 
-0.87002400000000002

>  <SCORE.heavy>  (60) 
18

>  <OrigSmiles>  (60) 
Brc1cccc(CNc2nc3ccccc3o2)c1

>  <SuCOS_Score>  (60) 
0.091845028447575194

>  <Max_SuCOS_Score>  (60) 
0.31877003223093681

>  <Cum_SuCOS_Score>  (60) 
3.8216794170974393

>  <TransFSScore_50nM>  (60) 
0.001003

>  <TransFSScore_1uM>  (60) 
0.014541999999999999

>  <TransFSScore_10nM>  (60) 
0.00055000000000000003

>  <TransFSScore_200nM>  (60) 
0.004555

>  <TransFSScore>  (60) 
0.0051624999999999996

>  <FeatureSteinScore>  (60) 
0.16431319414650586

$$$$
Brc1cccc(CSc2nc3ccccc3o2)c1
     RDKit          3D

 18 20  0  0  0  0  0  0  0  0999 V2000
   12.8135   -1.3274   22.2188 Br  0  0  0  0  0  0  0  0  0  0  0  0
   11.1508   -0.4471   22.5953 C   0  0  0  0  0  0  0  0  0  0  0  0
   11.0940    0.9500   22.5928 C   0  0  0  0  0  0  0  0  0  0  0  0
    9.8824    1.6042   22.8325 C   0  0  0  0  0  0  0  0  0  0  0  0
    8.7216    0.8663   23.0811 C   0  0  0  0  0  0  0  0  0  0  0  0
    8.7729   -0.5379   23.1045 C   0  0  0  0  0  0  0  0  0  0  0  0
    7.5229   -1.3353   23.3382 C   0  0  0  0  0  0  0  0  0  0  0  0
    7.3639   -2.6085   22.0453 S   0  0  0  0  0  0  0  0  0  0  0  0
    6.8804   -1.4279   20.7905 C   0  0  0  0  0  0  0  0  0  0  0  0
    5.6325   -0.9090   20.6926 N   0  0  0  0  0  0  0  0  0  0  0  0
    5.7220   -0.0943   19.6316 C   0  0  0  0  0  0  0  0  0  0  0  0
    4.7340    0.7052   19.0623 C   0  0  0  0  0  0  0  0  0  0  0  0
    5.0906    1.4754   17.9382 C   0  0  0  0  0  0  0  0  0  0  0  0
    6.4075    1.4246   17.4221 C   0  0  0  0  0  0  0  0  0  0  0  0
    7.3797    0.6029   18.0255 C   0  0  0  0  0  0  0  0  0  0  0  0
    6.9912   -0.1438   19.1340 C   0  0  0  0  0  0  0  0  0  0  0  0
    7.7021   -0.9721   19.8586 O   0  0  0  0  0  0  0  0  0  0  0  0
    9.9923   -1.1920   22.8510 C   0  0  0  0  0  0  0  0  0  0  0  0
  1  2  1  0
  2  3  2  0
  3  4  1  0
  4  5  2  0
  5  6  1  0
  6  7  1  0
  6 18  2  0
  7  8  1  0
  8  9  1  0
  9 10  2  0
 10 11  1  0
 11 12  2  0
 12 13  1  0
 13 14  2  0
 14 15  1  0
 15 16  2  0
 16 17  1  0
 16 11  1  0
 17  9  1  0
 18  2  1  0
M  END
>  <Hit>  (61) 
Mpro-x0946_0

>  <Receptor>  (61) 
Mpro-x0387_0

>  <SCORE>  (61) 
-11.761699999999999

>  <SCORE.norm>  (61) 
-0.65342999999999996

>  <SCORE.heavy>  (61) 
18

>  <OrigSmiles>  (61) 
Brc1cccc(CSc2nc3ccccc3o2)c1

>  <SuCOS_Score>  (61) 
0.13651890543765446

>  <Max_SuCOS_Score>  (61) 
0.50810183354468508

>  <Cum_SuCOS_Score>  (61) 
5.7522411881600508

>  <TransFSScore_50nM>  (61) 
0.0012489999999999999

>  <TransFSScore_1uM>  (61) 
0.050951999999999997

>  <TransFSScore_10nM>  (61) 
0.002859

>  <TransFSScore_200nM>  (61) 
0.061242999999999999

>  <TransFSScore>  (61) 
0.029075749999999997

>  <FeatureSteinScore>  (61) 
0.36030262425186849

$$$$
Brc1cccc(Cc2noc(CN3CCNCC3)n2)c1
     RDKit          3D

 20 22  0  0  0  0  0  0  0  0999 V2000
   14.0616    5.4763   21.9989 Br  0  0  0  0  0  0  0  0  0  0  0  0
   12.7477    4.3510   22.8080 C   0  0  0  0  0  0  0  0  0  0  0  0
   13.0650    3.0285   23.1347 C   0  0  0  0  0  0  0  0  0  0  0  0
   12.1072    2.2073   23.7358 C   0  0  0  0  0  0  0  0  0  0  0  0
   10.8290    2.7039   24.0082 C   0  0  0  0  0  0  0  0  0  0  0  0
   10.4974    4.0265   23.6704 C   0  0  0  0  0  0  0  0  0  0  0  0
    9.1365    4.5746   23.9977 C   0  0  0  0  0  0  0  0  0  0  0  0
    8.6131    3.9307   25.2415 C   0  0  0  0  0  0  0  0  0  0  0  0
    8.2599    2.6305   25.3230 N   0  0  0  0  0  0  0  0  0  0  0  0
    7.7984    2.5584   26.5910 C   0  0  0  0  0  0  0  0  0  0  0  0
    7.2897    1.2954   27.2308 C   0  0  0  0  0  0  0  0  0  0  0  0
    7.5174    0.0899   26.4092 N   0  0  0  0  0  0  0  0  0  0  0  0
    8.8497   -0.4799   26.6465 C   0  0  0  0  0  0  0  0  0  0  0  0
    9.0970   -1.6443   25.6835 C   0  0  0  0  0  0  0  0  0  0  0  0
    8.0463   -2.6687   25.7861 N   0  0  0  0  0  0  0  0  0  0  0  0
    6.6966   -2.0955   25.6744 C   0  0  0  0  0  0  0  0  0  0  0  0
    6.4987   -0.9413   26.6593 C   0  0  0  0  0  0  0  0  0  0  0  0
    7.8649    3.7178   27.2020 O   0  0  0  0  0  0  0  0  0  0  0  0
    8.3619    4.5913   26.3848 N   0  0  0  0  0  0  0  0  0  0  0  0
   11.4692    4.8510   23.0788 C   0  0  0  0  0  0  0  0  0  0  0  0
  1  2  1  0
  2  3  2  0
  3  4  1  0
  4  5  2  0
  5  6  1  0
  6  7  1  0
  6 20  2  0
  7  8  1  0
  8  9  1  0
  9 10  2  0
 10 11  1  0
 10 18  1  0
 11 12  1  0
 12 13  1  0
 13 14  1  0
 14 15  1  0
 15 16  1  0
 16 17  1  0
 17 12  1  0
 18 19  1  0
 19  8  2  0
 20  2  1  0
M  END
>  <Hit>  (62) 
Mpro-x0354_0

>  <Receptor>  (62) 
Mpro-x0874_0

>  <SCORE>  (62) 
-6.5462300000000004

>  <SCORE.norm>  (62) 
-0.32731199999999999

>  <SCORE.heavy>  (62) 
20

>  <OrigSmiles>  (62) 
Brc1cccc(Cc2noc(CN3CCNCC3)n2)c1

>  <SuCOS_Score>  (62) 
0.14556278700857289

>  <Max_SuCOS_Score>  (62) 
0.31874571702008075

>  <Cum_SuCOS_Score>  (62) 
2.3024890978826273

>  <TransFSScore_50nM>  (62) 
0.0077169999999999999

>  <TransFSScore_1uM>  (62) 
0.0088739999999999999

>  <TransFSScore_10nM>  (62) 
0.003199

>  <TransFSScore_200nM>  (62) 
0.027168999999999999

>  <TransFSScore>  (62) 
0.01173975

>  <FeatureSteinScore>  (62) 
0.13337350373901236

$$$$
Brc1cccc(NCc2cn3ccsc3n2)c1
     RDKit          3D

 17 19  0  0  0  0  0  0  0  0999 V2000
   13.5822   -1.4005   22.1537 Br  0  0  0  0  0  0  0  0  0  0  0  0
   11.6963   -1.1282   22.3769 C   0  0  0  0  0  0  0  0  0  0  0  0
   10.7954   -2.1824   22.1829 C   0  0  0  0  0  0  0  0  0  0  0  0
    9.4200   -1.9608   22.3185 C   0  0  0  0  0  0  0  0  0  0  0  0
    8.9403   -0.6892   22.6491 C   0  0  0  0  0  0  0  0  0  0  0  0
    9.8394    0.3707   22.8614 C   0  0  0  0  0  0  0  0  0  0  0  0
    9.3488    1.6901   23.1743 N   0  0  0  0  0  0  0  0  0  0  0  0
    9.1136    2.4452   21.9366 C   0  0  0  0  0  0  0  0  0  0  0  0
    7.7358    2.1760   21.4130 C   0  0  0  0  0  0  0  0  0  0  0  0
    6.6647    3.0701   21.4716 C   0  0  0  0  0  0  0  0  0  0  0  0
    5.6628    2.4599   20.8357 N   0  0  0  0  0  0  0  0  0  0  0  0
    4.3819    2.7282   20.5060 C   0  0  0  0  0  0  0  0  0  0  0  0
    3.8067    1.6730   19.7825 C   0  0  0  0  0  0  0  0  0  0  0  0
    4.9622    0.4199   19.5776 S   0  0  0  0  0  0  0  0  0  0  0  0
    6.1130    1.2944   20.4241 C   0  0  0  0  0  0  0  0  0  0  0  0
    7.3975    1.0425   20.7337 N   0  0  0  0  0  0  0  0  0  0  0  0
   11.2197    0.1420   22.7163 C   0  0  0  0  0  0  0  0  0  0  0  0
  1  2  1  0
  2  3  2  0
  3  4  1  0
  4  5  2  0
  5  6  1  0
  6  7  1  0
  6 17  2  0
  7  8  1  0
  8  9  1  0
  9 10  2  0
 10 11  1  0
 11 12  1  0
 12 13  2  0
 13 14  1  0
 14 15  1  0
 15 16  2  0
 15 11  1  0
 16  9  1  0
 17  2  1  0
M  END
>  <Hit>  (63) 
Mpro-x0946_0

>  <Receptor>  (63) 
Mpro-x0387_0

>  <SCORE>  (63) 
-12.549099999999999

>  <SCORE.norm>  (63) 
-0.73818300000000003

>  <SCORE.heavy>  (63) 
17

>  <OrigSmiles>  (63) 
Brc1cccc(NCc2cn3ccsc3n2)c1

>  <SuCOS_Score>  (63) 
0.14281945836765825

>  <Max_SuCOS_Score>  (63) 
0.35600847308050221

>  <Cum_SuCOS_Score>  (63) 
4.7528119649184299

>  <TransFSScore_50nM>  (63) 
0.000696

>  <TransFSScore_1uM>  (63) 
0.0020349999999999999

>  <TransFSScore_10nM>  (63) 
2.4000000000000001e-05

>  <TransFSScore_200nM>  (63) 
0.0055209999999999999

>  <TransFSScore>  (63) 
0.0020690000000000001

>  <FeatureSteinScore>  (63) 
0.32041967480612954

$$$$
Brc1cccc(Nc2nc3ccccc3o2)c1
     RDKit          3D

 17 19  0  0  0  0  0  0  0  0999 V2000
   13.9128   -2.1922   22.0527 Br  0  0  0  0  0  0  0  0  0  0  0  0
   12.2359   -1.3370   22.4232 C   0  0  0  0  0  0  0  0  0  0  0  0
   11.0452   -2.0736   22.4286 C   0  0  0  0  0  0  0  0  0  0  0  0
    9.8258   -1.4287   22.6652 C   0  0  0  0  0  0  0  0  0  0  0  0
    9.7923   -0.0501   22.9007 C   0  0  0  0  0  0  0  0  0  0  0  0
   10.9835    0.6901   22.9213 C   0  0  0  0  0  0  0  0  0  0  0  0
   10.9276    2.1090   23.1370 N   0  0  0  0  0  0  0  0  0  0  0  0
    9.7868    2.9225   22.8341 C   0  0  0  0  0  0  0  0  0  0  0  0
    9.7237    4.2618   23.0510 N   0  0  0  0  0  0  0  0  0  0  0  0
    8.4825    4.5749   22.6517 C   0  0  0  0  0  0  0  0  0  0  0  0
    7.8572    5.8194   22.6528 C   0  0  0  0  0  0  0  0  0  0  0  0
    6.5304    5.8798   22.1839 C   0  0  0  0  0  0  0  0  0  0  0  0
    5.8739    4.7088   21.7360 C   0  0  0  0  0  0  0  0  0  0  0  0
    6.5380    3.4666   21.7540 C   0  0  0  0  0  0  0  0  0  0  0  0
    7.8483    3.4454   22.2232 C   0  0  0  0  0  0  0  0  0  0  0  0
    8.6622    2.4260   22.3438 O   0  0  0  0  0  0  0  0  0  0  0  0
   12.2043    0.0400   22.6665 C   0  0  0  0  0  0  0  0  0  0  0  0
  1  2  1  0
  2  3  2  0
  3  4  1  0
  4  5  2  0
  5  6  1  0
  6  7  1  0
  6 17  2  0
  7  8  1  0
  8  9  2  0
  9 10  1  0
 10 11  2  0
 11 12  1  0
 12 13  2  0
 13 14  1  0
 14 15  2  0
 15 16  1  0
 15 10  1  0
 16  8  1  0
 17  2  1  0
M  END
>  <Hit>  (64) 
Mpro-x0946_0

>  <Receptor>  (64) 
Mpro-x0387_0

>  <SCORE>  (64) 
-13.0998

>  <SCORE.norm>  (64) 
-0.77057900000000001

>  <SCORE.heavy>  (64) 
17

>  <OrigSmiles>  (64) 
Brc1cccc(Nc2nc3ccccc3o2)c1

>  <SuCOS_Score>  (64) 
0.23730493131271732

>  <Max_SuCOS_Score>  (64) 
0.35692492680515508

>  <Cum_SuCOS_Score>  (64) 
4.1793722703768879

>  <TransFSScore_50nM>  (64) 
0.104223

>  <TransFSScore_1uM>  (64) 
0.051565

>  <TransFSScore_10nM>  (64) 
0.00093800000000000003

>  <TransFSScore_200nM>  (64) 
0.014976

>  <TransFSScore>  (64) 
0.042925499999999991

>  <FeatureSteinScore>  (64) 
0.31649355385659156

$$$$
Brc1cccc(OCc2cn3ccsc3n2)c1
     RDKit          3D

 17 19  0  0  0  0  0  0  0  0999 V2000
   13.4034   -1.6187   21.2217 Br  0  0  0  0  0  0  0  0  0  0  0  0
   11.8279   -1.2371   22.2480 C   0  0  0  0  0  0  0  0  0  0  0  0
   11.6322    0.0501   22.7571 C   0  0  0  0  0  0  0  0  0  0  0  0
   10.4753    0.3498   23.4811 C   0  0  0  0  0  0  0  0  0  0  0  0
    9.5101   -0.6363   23.7031 C   0  0  0  0  0  0  0  0  0  0  0  0
    9.6981   -1.9332   23.2061 C   0  0  0  0  0  0  0  0  0  0  0  0
    8.7050   -2.8911   23.4578 O   0  0  0  0  0  0  0  0  0  0  0  0
    7.3260   -2.5901   23.6489 C   0  0  0  0  0  0  0  0  0  0  0  0
    6.7276   -2.1842   22.3437 C   0  0  0  0  0  0  0  0  0  0  0  0
    6.5533   -0.8667   21.9150 C   0  0  0  0  0  0  0  0  0  0  0  0
    6.0567   -0.9621   20.6802 N   0  0  0  0  0  0  0  0  0  0  0  0
    5.6737   -0.1252   19.6931 C   0  0  0  0  0  0  0  0  0  0  0  0
    5.2398   -0.8315   18.5614 C   0  0  0  0  0  0  0  0  0  0  0  0
    5.3646   -2.5185   18.8543 S   0  0  0  0  0  0  0  0  0  0  0  0
    5.9546   -2.2428   20.3976 C   0  0  0  0  0  0  0  0  0  0  0  0
    6.3604   -3.0722   21.3756 N   0  0  0  0  0  0  0  0  0  0  0  0
   10.8672   -2.2314   22.4742 C   0  0  0  0  0  0  0  0  0  0  0  0
  1  2  1  0
  2  3  2  0
  3  4  1  0
  4  5  2  0
  5  6  1  0
  6  7  1  0
  6 17  2  0
  7  8  1  0
  8  9  1  0
  9 10  2  0
 10 11  1  0
 11 12  1  0
 12 13  2  0
 13 14  1  0
 14 15  1  0
 15 16  2  0
 15 11  1  0
 16  9  1  0
 17  2  1  0
M  END
>  <Hit>  (65) 
Mpro-x0946_0

>  <Receptor>  (65) 
Mpro-x0387_0

>  <SCORE>  (65) 
-10.0817

>  <SCORE.norm>  (65) 
-0.59304299999999999

>  <SCORE.heavy>  (65) 
17

>  <OrigSmiles>  (65) 
Brc1cccc(OCc2cn3ccsc3n2)c1

>  <SuCOS_Score>  (65) 
0.11888678735476899

>  <Max_SuCOS_Score>  (65) 
0.34498749844532423

>  <Cum_SuCOS_Score>  (65) 
4.5881838946320146

>  <TransFSScore_50nM>  (65) 
0.012888

>  <TransFSScore_1uM>  (65) 
0.023609000000000002

>  <TransFSScore_10nM>  (65) 
0.001098

>  <TransFSScore_200nM>  (65) 
0.013579000000000001

>  <TransFSScore>  (65) 
0.012793500000000001

>  <FeatureSteinScore>  (65) 
0.4467880805716935

$$$$
Brc1cccc2c1CCCN2Cc1ccccc1
     RDKit          3D

 18 20  0  0  0  0  0  0  0  0999 V2000
   10.9815    3.0678   22.8403 Br  0  0  0  0  0  0  0  0  0  0  0  0
    9.6207    1.7227   22.6688 C   0  0  0  0  0  0  0  0  0  0  0  0
    8.3819    2.1325   22.1762 C   0  0  0  0  0  0  0  0  0  0  0  0
    7.3365    1.2246   22.0718 C   0  0  0  0  0  0  0  0  0  0  0  0
    7.5203   -0.1056   22.4355 C   0  0  0  0  0  0  0  0  0  0  0  0
    8.7615   -0.5733   22.9342 C   0  0  0  0  0  0  0  0  0  0  0  0
    9.8284    0.3686   23.0370 C   0  0  0  0  0  0  0  0  0  0  0  0
   11.1736   -0.0885   23.5454 C   0  0  0  0  0  0  0  0  0  0  0  0
   11.4716   -1.4943   23.0543 C   0  0  0  0  0  0  0  0  0  0  0  0
   10.3504   -2.4382   23.4667 C   0  0  0  0  0  0  0  0  0  0  0  0
    9.0147   -2.0196   22.9806 N   0  0  0  0  0  0  0  0  0  0  0  0
    7.9251   -2.8177   23.6017 C   0  0  0  0  0  0  0  0  0  0  0  0
    7.3075   -3.8192   22.6483 C   0  0  0  0  0  0  0  0  0  0  0  0
    5.9722   -3.6800   22.2326 C   0  0  0  0  0  0  0  0  0  0  0  0
    5.4013   -4.6212   21.3702 C   0  0  0  0  0  0  0  0  0  0  0  0
    6.1565   -5.7072   20.9192 C   0  0  0  0  0  0  0  0  0  0  0  0
    7.4839   -5.8545   21.3306 C   0  0  0  0  0  0  0  0  0  0  0  0
    8.0587   -4.9160   22.1931 C   0  0  0  0  0  0  0  0  0  0  0  0
  1  2  1  0
  2  3  2  0
  3  4  1  0
  4  5  2  0
  5  6  1  0
  6  7  2  0
  7  8  1  0
  7  2  1  0
  8  9  1  0
  9 10  1  0
 10 11  1  0
 11 12  1  0
 11  6  1  0
 12 13  1  0
 13 14  2  0
 14 15  1  0
 15 16  2  0
 16 17  1  0
 17 18  2  0
 18 13  1  0
M  END
>  <Hit>  (66) 
Mpro-x0195_0

>  <Receptor>  (66) 
Mpro-x0387_0

>  <SCORE>  (66) 
-10.5036

>  <SCORE.norm>  (66) 
-0.58353200000000005

>  <SCORE.heavy>  (66) 
18

>  <OrigSmiles>  (66) 
Brc1cccc2c1CCCN2Cc1ccccc1

>  <SuCOS_Score>  (66) 
0.16900212314225055

>  <Max_SuCOS_Score>  (66) 
0.38943697635663688

>  <Cum_SuCOS_Score>  (66) 
3.900243601274529

>  <TransFSScore_50nM>  (66) 
0.019005999999999999

>  <TransFSScore_1uM>  (66) 
0.061310999999999997

>  <TransFSScore_10nM>  (66) 
0.0051209999999999997

>  <TransFSScore_200nM>  (66) 
0.026890000000000001

>  <TransFSScore>  (66) 
0.028081999999999999

>  <FeatureSteinScore>  (66) 
0.29842959242357786

$$$$
Brc1cccc2c1N(Cc1ccccc1)CCC2
     RDKit          3D

 18 20  0  0  0  0  0  0  0  0999 V2000
    8.4432    0.7972   23.8843 Br  0  0  0  0  0  0  0  0  0  0  0  0
   10.3449    1.1055   23.9747 C   0  0  0  0  0  0  0  0  0  0  0  0
   10.6489    2.4323   24.2788 C   0  0  0  0  0  0  0  0  0  0  0  0
   11.8881    2.9695   23.9632 C   0  0  0  0  0  0  0  0  0  0  0  0
   12.8645    2.1659   23.3862 C   0  0  0  0  0  0  0  0  0  0  0  0
   12.6137    0.8037   23.1341 C   0  0  0  0  0  0  0  0  0  0  0  0
   11.3462    0.2274   23.4490 C   0  0  0  0  0  0  0  0  0  0  0  0
   10.9659   -1.0848   22.9090 N   0  0  0  0  0  0  0  0  0  0  0  0
   10.2188   -1.9563   23.8508 C   0  0  0  0  0  0  0  0  0  0  0  0
    9.0852   -2.7029   23.1781 C   0  0  0  0  0  0  0  0  0  0  0  0
    8.8900   -4.0725   23.4230 C   0  0  0  0  0  0  0  0  0  0  0  0
    7.8316   -4.7545   22.8150 C   0  0  0  0  0  0  0  0  0  0  0  0
    6.9586   -4.0753   21.9613 C   0  0  0  0  0  0  0  0  0  0  0  0
    7.1418   -2.7122   21.7154 C   0  0  0  0  0  0  0  0  0  0  0  0
    8.1991   -2.0266   22.3211 C   0  0  0  0  0  0  0  0  0  0  0  0
   12.0295   -1.8649   22.2247 C   0  0  0  0  0  0  0  0  0  0  0  0
   13.0671   -1.0086   21.5099 C   0  0  0  0  0  0  0  0  0  0  0  0
   13.6899   -0.0262   22.4872 C   0  0  0  0  0  0  0  0  0  0  0  0
  1  2  1  0
  2  3  2  0
  3  4  1  0
  4  5  2  0
  5  6  1  0
  6  7  2  0
  7  8  1  0
  7  2  1  0
  8  9  1  0
  8 16  1  0
  9 10  1  0
 10 11  2  0
 11 12  1  0
 12 13  2  0
 13 14  1  0
 14 15  2  0
 15 10  1  0
 16 17  1  0
 17 18  1  0
 18  6  1  0
M  END
>  <Hit>  (67) 
Mpro-x0195_0

>  <Receptor>  (67) 
Mpro-x1249_0

>  <SCORE>  (67) 
-11.2532

>  <SCORE.norm>  (67) 
-0.62517500000000004

>  <SCORE.heavy>  (67) 
18

>  <OrigSmiles>  (67) 
Brc1cccc2c1N(Cc1ccccc1)CCC2

>  <SuCOS_Score>  (67) 
0.42447329618352903

>  <Max_SuCOS_Score>  (67) 
0.44731545458108768

>  <Cum_SuCOS_Score>  (67) 
5.362862455233782

>  <TransFSScore_50nM>  (67) 
0.0055459999999999997

>  <TransFSScore_1uM>  (67) 
0.101809

>  <TransFSScore_10nM>  (67) 
0.016149

>  <TransFSScore_200nM>  (67) 
0.040611000000000001

>  <TransFSScore>  (67) 
0.041028749999999996

>  <FeatureSteinScore>  (67) 
0.57378517921664063

$$$$
Brc1ccccc1-c1cn2ccsc2n1
     RDKit          3D

 15 17  0  0  0  0  0  0  0  0999 V2000
   12.3219   -0.3258   23.3846 Br  0  0  0  0  0  0  0  0  0  0  0  0
   10.5935    0.0512   22.6234 C   0  0  0  0  0  0  0  0  0  0  0  0
   10.3991    1.3065   22.0307 C   0  0  0  0  0  0  0  0  0  0  0  0
    9.1675    1.6374   21.4594 C   0  0  0  0  0  0  0  0  0  0  0  0
    8.1139    0.7231   21.4878 C   0  0  0  0  0  0  0  0  0  0  0  0
    8.2898   -0.5228   22.0950 C   0  0  0  0  0  0  0  0  0  0  0  0
    9.5278   -0.8785   22.6589 C   0  0  0  0  0  0  0  0  0  0  0  0
    9.6641   -2.2217   23.2591 C   0  0  0  0  0  0  0  0  0  0  0  0
    8.7928   -3.3004   23.0688 C   0  0  0  0  0  0  0  0  0  0  0  0
    9.2534   -4.2726   23.8581 N   0  0  0  0  0  0  0  0  0  0  0  0
    8.9048   -5.5326   24.1926 C   0  0  0  0  0  0  0  0  0  0  0  0
    9.7791   -6.0699   25.1490 C   0  0  0  0  0  0  0  0  0  0  0  0
   10.9749   -4.9059   25.5519 S   0  0  0  0  0  0  0  0  0  0  0  0
   10.3115   -3.8024   24.4805 C   0  0  0  0  0  0  0  0  0  0  0  0
   10.6268   -2.5315   24.1763 N   0  0  0  0  0  0  0  0  0  0  0  0
  1  2  1  0
  2  3  2  0
  3  4  1  0
  4  5  2  0
  5  6  1  0
  6  7  2  0
  7  8  1  0
  7  2  1  0
  8  9  2  0
  9 10  1  0
 10 11  1  0
 11 12  2  0
 12 13  1  0
 13 14  1  0
 14 15  2  0
 14 10  1  0
 15  8  1  0
M  END
>  <Hit>  (68) 
Mpro-x0946_0

>  <Receptor>  (68) 
Mpro-x0387_0

>  <SCORE>  (68) 
-10.6487

>  <SCORE.norm>  (68) 
-0.70991499999999996

>  <SCORE.heavy>  (68) 
15

>  <OrigSmiles>  (68) 
Brc1ccccc1-c1cn2ccsc2n1

>  <SuCOS_Score>  (68) 
0.10643265617641896

>  <Max_SuCOS_Score>  (68) 
0.3510752688172043

>  <Cum_SuCOS_Score>  (68) 
4.2939469090947551

>  <TransFSScore_50nM>  (68) 
0.0085719999999999998

>  <TransFSScore_1uM>  (68) 
0.022127999999999998

>  <TransFSScore_10nM>  (68) 
0.00020100000000000001

>  <TransFSScore_200nM>  (68) 
0.038447000000000002

>  <TransFSScore>  (68) 
0.017336999999999998

>  <FeatureSteinScore>  (68) 
0.38187773762462385

$$$$
Brc1ccccc1-c1nc2ccccc2o1
     RDKit          3D

 16 18  0  0  0  0  0  0  0  0999 V2000
   12.3146    0.2126   24.4747 Br  0  0  0  0  0  0  0  0  0  0  0  0
   10.8475    0.6711   23.3144 C   0  0  0  0  0  0  0  0  0  0  0  0
   10.8186    1.9640   22.7738 C   0  0  0  0  0  0  0  0  0  0  0  0
    9.8109    2.3357   21.8796 C   0  0  0  0  0  0  0  0  0  0  0  0
    8.8274    1.4168   21.5109 C   0  0  0  0  0  0  0  0  0  0  0  0
    8.8483    0.1245   22.0419 C   0  0  0  0  0  0  0  0  0  0  0  0
    9.8454   -0.2591   22.9551 C   0  0  0  0  0  0  0  0  0  0  0  0
    9.8036   -1.6306   23.4996 C   0  0  0  0  0  0  0  0  0  0  0  0
    8.9550   -2.6020   23.0735 N   0  0  0  0  0  0  0  0  0  0  0  0
    9.3012   -3.6641   23.8148 C   0  0  0  0  0  0  0  0  0  0  0  0
    8.7677   -4.9505   23.7943 C   0  0  0  0  0  0  0  0  0  0  0  0
    9.3233   -5.8974   24.6767 C   0  0  0  0  0  0  0  0  0  0  0  0
   10.3852   -5.5365   25.5399 C   0  0  0  0  0  0  0  0  0  0  0  0
   10.9018   -4.2261   25.5271 C   0  0  0  0  0  0  0  0  0  0  0  0
   10.3271   -3.3180   24.6425 C   0  0  0  0  0  0  0  0  0  0  0  0
   10.6347   -2.0616   24.4377 O   0  0  0  0  0  0  0  0  0  0  0  0
  1  2  1  0
  2  3  2  0
  3  4  1  0
  4  5  2  0
  5  6  1  0
  6  7  2  0
  7  8  1  0
  7  2  1  0
  8  9  2  0
  9 10  1  0
 10 11  2  0
 11 12  1  0
 12 13  2  0
 13 14  1  0
 14 15  2  0
 15 16  1  0
 15 10  1  0
 16  8  1  0
M  END
>  <Hit>  (69) 
Mpro-x0946_0

>  <Receptor>  (69) 
Mpro-x0387_0

>  <SCORE>  (69) 
-10.011699999999999

>  <SCORE.norm>  (69) 
-0.62573199999999995

>  <SCORE.heavy>  (69) 
16

>  <OrigSmiles>  (69) 
Brc1ccccc1-c1nc2ccccc2o1

>  <SuCOS_Score>  (69) 
0.13009044603707071

>  <Max_SuCOS_Score>  (69) 
0.37379724432422196

>  <Cum_SuCOS_Score>  (69) 
4.3184742832848224

>  <TransFSScore_50nM>  (69) 
0.067863000000000007

>  <TransFSScore_1uM>  (69) 
0.053933000000000002

>  <TransFSScore_10nM>  (69) 
0.0026440000000000001

>  <TransFSScore_200nM>  (69) 
0.096242999999999995

>  <TransFSScore>  (69) 
0.055170750000000005

>  <FeatureSteinScore>  (69) 
0.45340396242919345

$$$$
Brc1ccccc1C=NNc1nc2ccccc2o1
     RDKit          3D

 19 21  0  0  0  0  0  0  0  0999 V2000
   12.3019   -0.0402   23.0861 Br  0  0  0  0  0  0  0  0  0  0  0  0
   10.8213    1.1872   23.1731 C   0  0  0  0  0  0  0  0  0  0  0  0
   11.0914    2.5611   23.2024 C   0  0  0  0  0  0  0  0  0  0  0  0
   10.0440    3.4857   23.2424 C   0  0  0  0  0  0  0  0  0  0  0  0
    8.7193    3.0446   23.2546 C   0  0  0  0  0  0  0  0  0  0  0  0
    8.4412    1.6746   23.2359 C   0  0  0  0  0  0  0  0  0  0  0  0
    9.4869    0.7348   23.2094 C   0  0  0  0  0  0  0  0  0  0  0  0
    9.1832   -0.7095   23.1514 C   0  0  0  0  0  0  0  0  0  0  0  0
    9.2116   -1.3991   22.0471 N   0  0  0  0  0  0  0  0  0  0  0  0
    9.5438   -0.8629   20.7893 N   0  0  0  0  0  0  0  0  0  0  0  0
    8.3386   -0.3756   20.1960 C   0  0  0  0  0  0  0  0  0  0  0  0
    7.8758    0.8885   20.3914 N   0  0  0  0  0  0  0  0  0  0  0  0
    6.7359    0.8719   19.6798 C   0  0  0  0  0  0  0  0  0  0  0  0
    5.8202    1.9072   19.5067 C   0  0  0  0  0  0  0  0  0  0  0  0
    4.6864    1.6496   18.7117 C   0  0  0  0  0  0  0  0  0  0  0  0
    4.5004    0.3786   18.1190 C   0  0  0  0  0  0  0  0  0  0  0  0
    5.4468   -0.6452   18.3167 C   0  0  0  0  0  0  0  0  0  0  0  0
    6.5538   -0.3520   19.1080 C   0  0  0  0  0  0  0  0  0  0  0  0
    7.5541   -1.1232   19.4365 O   0  0  0  0  0  0  0  0  0  0  0  0
  1  2  1  0
  2  3  2  0
  3  4  1  0
  4  5  2  0
  5  6  1  0
  6  7  2  0
  7  8  1  0
  7  2  1  0
  8  9  2  0
  9 10  1  0
 10 11  1  0
 11 12  2  0
 12 13  1  0
 13 14  2  0
 14 15  1  0
 15 16  2  0
 16 17  1  0
 17 18  2  0
 18 19  1  0
 18 13  1  0
 19 11  1  0
M  END
>  <Hit>  (70) 
Mpro-x0946_0

>  <Receptor>  (70) 
Mpro-x0387_0

>  <SCORE>  (70) 
-10.0999

>  <SCORE.norm>  (70) 
-0.53157299999999996

>  <SCORE.heavy>  (70) 
19

>  <OrigSmiles>  (70) 
Brc1ccccc1C=NNc1nc2ccccc2o1

>  <SuCOS_Score>  (70) 
0.2049903157822463

>  <Max_SuCOS_Score>  (70) 
0.43172604829205075

>  <Cum_SuCOS_Score>  (70) 
5.4558100248897592

>  <TransFSScore_50nM>  (70) 
0.00053399999999999997

>  <TransFSScore_1uM>  (70) 
0.018397

>  <TransFSScore_10nM>  (70) 
6.2000000000000003e-05

>  <TransFSScore_200nM>  (70) 
0.001289

>  <TransFSScore>  (70) 
0.0050704999999999995

>  <FeatureSteinScore>  (70) 
0.36614039382533453

$$$$
Brc1ccccc1C=Nc1ccc2c(c1)OCO2
     RDKit          3D

 18 20  0  0  0  0  0  0  0  0999 V2000
   13.1629   -1.2623   21.6096 Br  0  0  0  0  0  0  0  0  0  0  0  0
   12.3244    0.0798   22.7103 C   0  0  0  0  0  0  0  0  0  0  0  0
   12.6726    1.4170   22.4690 C   0  0  0  0  0  0  0  0  0  0  0  0
   12.0720    2.4494   23.1934 C   0  0  0  0  0  0  0  0  0  0  0  0
   11.1143    2.1581   24.1639 C   0  0  0  0  0  0  0  0  0  0  0  0
   10.7600    0.8312   24.4156 C   0  0  0  0  0  0  0  0  0  0  0  0
   11.3600   -0.2248   23.7058 C   0  0  0  0  0  0  0  0  0  0  0  0
   10.9333   -1.6026   24.0484 C   0  0  0  0  0  0  0  0  0  0  0  0
   10.0635   -1.8324   24.9845 N   0  0  0  0  0  0  0  0  0  0  0  0
    9.5583   -3.1168   25.3865 C   0  0  0  0  0  0  0  0  0  0  0  0
   10.0512   -4.3408   24.8480 C   0  0  0  0  0  0  0  0  0  0  0  0
    9.5318   -5.5733   25.2856 C   0  0  0  0  0  0  0  0  0  0  0  0
    8.5388   -5.5529   26.2586 C   0  0  0  0  0  0  0  0  0  0  0  0
    8.0741   -4.3932   26.7850 C   0  0  0  0  0  0  0  0  0  0  0  0
    8.5594   -3.1531   26.3813 C   0  0  0  0  0  0  0  0  0  0  0  0
    7.1028   -4.6718   27.7270 O   0  0  0  0  0  0  0  0  0  0  0  0
    6.9479   -6.0963   27.7957 C   0  0  0  0  0  0  0  0  0  0  0  0
    7.8835   -6.6196   26.8426 O   0  0  0  0  0  0  0  0  0  0  0  0
  1  2  1  0
  2  3  2  0
  3  4  1  0
  4  5  2  0
  5  6  1  0
  6  7  2  0
  7  8  1  0
  7  2  1  0
  8  9  2  0
  9 10  1  0
 10 11  2  0
 11 12  1  0
 12 13  2  0
 13 14  1  0
 14 15  2  0
 14 16  1  0
 15 10  1  0
 16 17  1  0
 17 18  1  0
 18 13  1  0
M  END
>  <Hit>  (71) 
Mpro-x0946_0

>  <Receptor>  (71) 
Mpro-x0874_0

>  <SCORE>  (71) 
-11.485799999999999

>  <SCORE.norm>  (71) 
-0.6381

>  <SCORE.heavy>  (71) 
18

>  <OrigSmiles>  (71) 
Brc1ccccc1C=Nc1ccc2c(c1)OCO2

>  <SuCOS_Score>  (71) 
0.30811405781115853

>  <Max_SuCOS_Score>  (71) 
0.41774170908962349

>  <Cum_SuCOS_Score>  (71) 
4.987604926101314

>  <TransFSScore_50nM>  (71) 
0.0057019999999999996

>  <TransFSScore_1uM>  (71) 
0.039017000000000003

>  <TransFSScore_10nM>  (71) 
0.0031939999999999998

>  <TransFSScore_200nM>  (71) 
0.0044510000000000001

>  <TransFSScore>  (71) 
0.013091000000000002

>  <FeatureSteinScore>  (71) 
0.47364271800612068

$$$$
Brc1ccccc1CNCCc1ccc2c(c1)OCO2
     RDKit          3D

 20 22  0  0  0  0  0  0  0  0999 V2000
   13.2784   -1.1458   21.6245 Br  0  0  0  0  0  0  0  0  0  0  0  0
   12.2289    0.1386   22.6022 C   0  0  0  0  0  0  0  0  0  0  0  0
   12.8412    1.3484   22.9575 C   0  0  0  0  0  0  0  0  0  0  0  0
   12.1239    2.3304   23.6453 C   0  0  0  0  0  0  0  0  0  0  0  0
   10.7902    2.1109   23.9909 C   0  0  0  0  0  0  0  0  0  0  0  0
   10.1734    0.9043   23.6523 C   0  0  0  0  0  0  0  0  0  0  0  0
   10.8778   -0.0937   22.9534 C   0  0  0  0  0  0  0  0  0  0  0  0
   10.1511   -1.3757   22.5932 C   0  0  0  0  0  0  0  0  0  0  0  0
    9.7064   -1.3890   21.1861 N   0  0  0  0  0  0  0  0  0  0  0  0
    8.6780   -0.3750   20.8815 C   0  0  0  0  0  0  0  0  0  0  0  0
    8.2314   -0.4196   19.4101 C   0  0  0  0  0  0  0  0  0  0  0  0
    6.9029    0.2678   19.2415 C   0  0  0  0  0  0  0  0  0  0  0  0
    6.6656    1.1020   18.1184 C   0  0  0  0  0  0  0  0  0  0  0  0
    5.4383    1.7742   17.9742 C   0  0  0  0  0  0  0  0  0  0  0  0
    4.4811    1.5992   18.9685 C   0  0  0  0  0  0  0  0  0  0  0  0
    4.7046    0.8117   20.0505 C   0  0  0  0  0  0  0  0  0  0  0  0
    5.9039    0.1288   20.2315 C   0  0  0  0  0  0  0  0  0  0  0  0
    3.5919    0.8279   20.8692 O   0  0  0  0  0  0  0  0  0  0  0  0
    2.6079    1.6776   20.2627 C   0  0  0  0  0  0  0  0  0  0  0  0
    3.2166    2.1490   19.0522 O   0  0  0  0  0  0  0  0  0  0  0  0
  1  2  1  0
  2  3  2  0
  3  4  1  0
  4  5  2  0
  5  6  1  0
  6  7  2  0
  7  8  1  0
  7  2  1  0
  8  9  1  0
  9 10  1  0
 10 11  1  0
 11 12  1  0
 12 13  2  0
 13 14  1  0
 14 15  2  0
 15 16  1  0
 16 17  2  0
 16 18  1  0
 17 12  1  0
 18 19  1  0
 19 20  1  0
 20 15  1  0
M  END
>  <Hit>  (72) 
Mpro-x0946_0

>  <Receptor>  (72) 
Mpro-x1249_0

>  <SCORE>  (72) 
-14.282

>  <SCORE.norm>  (72) 
-0.71410200000000001

>  <SCORE.heavy>  (72) 
20

>  <OrigSmiles>  (72) 
Brc1ccccc1CNCCc1ccc2c(c1)OCO2

>  <SuCOS_Score>  (72) 
0.29368817696194371

>  <Max_SuCOS_Score>  (72) 
0.48522936322076826

>  <Cum_SuCOS_Score>  (72) 
6.4046850748693709

>  <TransFSScore_50nM>  (72) 
5.8999999999999998e-05

>  <TransFSScore_1uM>  (72) 
0.004738

>  <TransFSScore_10nM>  (72) 
0.00054500000000000002

>  <TransFSScore_200nM>  (72) 
0.0052709999999999996

>  <TransFSScore>  (72) 
0.0026532500000000002

>  <FeatureSteinScore>  (72) 
0.43365273318041569

$$$$
Brc1ccccc1CNCc1ccc2c(c1)OCO2
     RDKit          3D

 19 21  0  0  0  0  0  0  0  0999 V2000
   13.4440   -1.4853   21.5140 Br  0  0  0  0  0  0  0  0  0  0  0  0
   12.4922   -0.2404   22.6336 C   0  0  0  0  0  0  0  0  0  0  0  0
   13.1662    0.9091   23.0661 C   0  0  0  0  0  0  0  0  0  0  0  0
   12.5121    1.8573   23.8573 C   0  0  0  0  0  0  0  0  0  0  0  0
   11.1805    1.6632   24.2273 C   0  0  0  0  0  0  0  0  0  0  0  0
   10.5026    0.5148   23.8102 C   0  0  0  0  0  0  0  0  0  0  0  0
   11.1470   -0.4493   23.0133 C   0  0  0  0  0  0  0  0  0  0  0  0
   10.3686   -1.6646   22.5529 C   0  0  0  0  0  0  0  0  0  0  0  0
    9.1719   -1.2994   21.7783 N   0  0  0  0  0  0  0  0  0  0  0  0
    9.5056   -0.4939   20.5973 C   0  0  0  0  0  0  0  0  0  0  0  0
    8.2411   -0.0123   19.9441 C   0  0  0  0  0  0  0  0  0  0  0  0
    8.1240   -0.0117   18.5301 C   0  0  0  0  0  0  0  0  0  0  0  0
    6.9297    0.4030   17.9128 C   0  0  0  0  0  0  0  0  0  0  0  0
    5.8770    0.7959   18.7334 C   0  0  0  0  0  0  0  0  0  0  0  0
    5.9776    0.7848   20.0865 C   0  0  0  0  0  0  0  0  0  0  0  0
    7.1405    0.3826   20.7372 C   0  0  0  0  0  0  0  0  0  0  0  0
    4.7871    1.2152   20.6399 O   0  0  0  0  0  0  0  0  0  0  0  0
    3.8833    1.5167   19.5675 C   0  0  0  0  0  0  0  0  0  0  0  0
    4.6189    1.2348   18.3686 O   0  0  0  0  0  0  0  0  0  0  0  0
  1  2  1  0
  2  3  2  0
  3  4  1  0
  4  5  2  0
  5  6  1  0
  6  7  2  0
  7  8  1  0
  7  2  1  0
  8  9  1  0
  9 10  1  0
 10 11  1  0
 11 12  2  0
 12 13  1  0
 13 14  2  0
 14 15  1  0
 15 16  2  0
 15 17  1  0
 16 11  1  0
 17 18  1  0
 18 19  1  0
 19 14  1  0
M  END
>  <Hit>  (73) 
Mpro-x0946_0

>  <Receptor>  (73) 
Mpro-x1249_0

>  <SCORE>  (73) 
-12.755699999999999

>  <SCORE.norm>  (73) 
-0.67135400000000001

>  <SCORE.heavy>  (73) 
19

>  <OrigSmiles>  (73) 
Brc1ccccc1CNCc1ccc2c(c1)OCO2

>  <SuCOS_Score>  (73) 
0.25008780710966894

>  <Max_SuCOS_Score>  (73) 
0.55223705371925236

>  <Cum_SuCOS_Score>  (73) 
6.5669601581017343

>  <TransFSScore_50nM>  (73) 
5.3999999999999998e-05

>  <TransFSScore_1uM>  (73) 
0.011786

>  <TransFSScore_10nM>  (73) 
8.6000000000000003e-05

>  <TransFSScore_200nM>  (73) 
0.003392

>  <TransFSScore>  (73) 
0.0038294999999999996

>  <FeatureSteinScore>  (73) 
0.48548932959735891

$$$$
Brc1ccccc1CSc1nc2ccccc2o1
     RDKit          3D

 18 20  0  0  0  0  0  0  0  0999 V2000
   12.2389   -0.4121   22.9137 Br  0  0  0  0  0  0  0  0  0  0  0  0
   10.6896    0.7308   22.9692 C   0  0  0  0  0  0  0  0  0  0  0  0
   10.8818    2.1137   22.8543 C   0  0  0  0  0  0  0  0  0  0  0  0
    9.7870    2.9823   22.8553 C   0  0  0  0  0  0  0  0  0  0  0  0
    8.4911    2.4770   22.9719 C   0  0  0  0  0  0  0  0  0  0  0  0
    8.2891    1.0995   23.0942 C   0  0  0  0  0  0  0  0  0  0  0  0
    9.3817    0.2133   23.1044 C   0  0  0  0  0  0  0  0  0  0  0  0
    9.1250   -1.2668   23.2028 C   0  0  0  0  0  0  0  0  0  0  0  0
    9.3621   -2.0389   21.5693 S   0  0  0  0  0  0  0  0  0  0  0  0
    8.0069   -3.1852   21.7944 C   0  0  0  0  0  0  0  0  0  0  0  0
    8.1145   -4.5205   21.5908 N   0  0  0  0  0  0  0  0  0  0  0  0
    6.8825   -4.9722   21.8657 C   0  0  0  0  0  0  0  0  0  0  0  0
    6.4049   -6.2798   21.8215 C   0  0  0  0  0  0  0  0  0  0  0  0
    5.0536   -6.4886   22.1600 C   0  0  0  0  0  0  0  0  0  0  0  0
    4.2294   -5.3984   22.5277 C   0  0  0  0  0  0  0  0  0  0  0  0
    4.7489   -4.0895   22.5602 C   0  0  0  0  0  0  0  0  0  0  0  0
    6.0879   -3.9213   22.2196 C   0  0  0  0  0  0  0  0  0  0  0  0
    6.7931   -2.8182   22.1732 O   0  0  0  0  0  0  0  0  0  0  0  0
  1  2  1  0
  2  3  2  0
  3  4  1  0
  4  5  2  0
  5  6  1  0
  6  7  2  0
  7  8  1  0
  7  2  1  0
  8  9  1  0
  9 10  1  0
 10 11  2  0
 11 12  1  0
 12 13  2  0
 13 14  1  0
 14 15  2  0
 15 16  1  0
 16 17  2  0
 17 18  1  0
 17 12  1  0
 18 10  1  0
M  END
>  <Hit>  (74) 
Mpro-x0946_0

>  <Receptor>  (74) 
Mpro-x0387_0

>  <SCORE>  (74) 
-10.0786

>  <SCORE.norm>  (74) 
-0.55992399999999998

>  <SCORE.heavy>  (74) 
18

>  <OrigSmiles>  (74) 
Brc1ccccc1CSc1nc2ccccc2o1

>  <SuCOS_Score>  (74) 
0.17001886879366127

>  <Max_SuCOS_Score>  (74) 
0.3944280325066129

>  <Cum_SuCOS_Score>  (74) 
3.7065999465107451

>  <TransFSScore_50nM>  (74) 
0.00069399999999999996

>  <TransFSScore_1uM>  (74) 
0.014093

>  <TransFSScore_10nM>  (74) 
0.0015250000000000001

>  <TransFSScore_200nM>  (74) 
0.0044689999999999999

>  <TransFSScore>  (74) 
0.0051952500000000002

>  <FeatureSteinScore>  (74) 
0.31135047584852693

$$$$
Brc1ccccc1NCc1ccc2c(c1)OCO2
     RDKit          3D

 18 20  0  0  0  0  0  0  0  0999 V2000
   12.2045   -0.3319   23.5726 Br  0  0  0  0  0  0  0  0  0  0  0  0
   10.8144    0.9413   23.1789 C   0  0  0  0  0  0  0  0  0  0  0  0
   11.1608    2.2964   23.1002 C   0  0  0  0  0  0  0  0  0  0  0  0
   10.1956    3.2563   22.7849 C   0  0  0  0  0  0  0  0  0  0  0  0
    8.8755    2.8716   22.5461 C   0  0  0  0  0  0  0  0  0  0  0  0
    8.5174    1.5236   22.6293 C   0  0  0  0  0  0  0  0  0  0  0  0
    9.4751    0.5433   22.9545 C   0  0  0  0  0  0  0  0  0  0  0  0
    9.0837   -0.8463   23.0019 N   0  0  0  0  0  0  0  0  0  0  0  0
    9.2721   -1.4710   21.6849 C   0  0  0  0  0  0  0  0  0  0  0  0
    8.1030   -1.1666   20.7861 C   0  0  0  0  0  0  0  0  0  0  0  0
    6.8760   -1.8584   20.9553 C   0  0  0  0  0  0  0  0  0  0  0  0
    5.7673   -1.5541   20.1444 C   0  0  0  0  0  0  0  0  0  0  0  0
    5.9162   -0.5528   19.1899 C   0  0  0  0  0  0  0  0  0  0  0  0
    7.0830    0.1217   19.0317 C   0  0  0  0  0  0  0  0  0  0  0  0
    8.2035   -0.1482   19.8121 C   0  0  0  0  0  0  0  0  0  0  0  0
    6.9413    1.0560   18.0237 O   0  0  0  0  0  0  0  0  0  0  0  0
    5.6028    0.9612   17.5166 C   0  0  0  0  0  0  0  0  0  0  0  0
    4.9833   -0.0771   18.2888 O   0  0  0  0  0  0  0  0  0  0  0  0
  1  2  1  0
  2  3  2  0
  3  4  1  0
  4  5  2  0
  5  6  1  0
  6  7  2  0
  7  8  1  0
  7  2  1  0
  8  9  1  0
  9 10  1  0
 10 11  2  0
 11 12  1  0
 12 13  2  0
 13 14  1  0
 14 15  2  0
 14 16  1  0
 15 10  1  0
 16 17  1  0
 17 18  1  0
 18 13  1  0
M  END
>  <Hit>  (75) 
Mpro-x0946_0

>  <Receptor>  (75) 
Mpro-x0387_0

>  <SCORE>  (75) 
-10.157400000000001

>  <SCORE.norm>  (75) 
-0.56430000000000002

>  <SCORE.heavy>  (75) 
18

>  <OrigSmiles>  (75) 
Brc1ccccc1NCc1ccc2c(c1)OCO2

>  <SuCOS_Score>  (75) 
0.18356875788633351

>  <Max_SuCOS_Score>  (75) 
0.42456129971864831

>  <Cum_SuCOS_Score>  (75) 
5.0904279366293146

>  <TransFSScore_50nM>  (75) 
0.00026800000000000001

>  <TransFSScore_1uM>  (75) 
0.011308

>  <TransFSScore_10nM>  (75) 
0.000195

>  <TransFSScore_200nM>  (75) 
0.0075319999999999996

>  <TransFSScore>  (75) 
0.0048257500000000002

>  <FeatureSteinScore>  (75) 
0.33794164091420059

$$$$
Brc1ccccc1NCc1cccc2c1OCO2
     RDKit          3D

 18 20  0  0  0  0  0  0  0  0999 V2000
   12.8797   -0.3716   23.0025 Br  0  0  0  0  0  0  0  0  0  0  0  0
   11.1025    0.2010   22.5310 C   0  0  0  0  0  0  0  0  0  0  0  0
   10.9009    1.5546   22.2313 C   0  0  0  0  0  0  0  0  0  0  0  0
    9.6356    2.0160   21.8589 C   0  0  0  0  0  0  0  0  0  0  0  0
    8.5589    1.1310   21.7889 C   0  0  0  0  0  0  0  0  0  0  0  0
    8.7459   -0.2187   22.0977 C   0  0  0  0  0  0  0  0  0  0  0  0
   10.0165   -0.7039   22.4634 C   0  0  0  0  0  0  0  0  0  0  0  0
   10.1769   -2.1000   22.7980 N   0  0  0  0  0  0  0  0  0  0  0  0
   10.0012   -2.2969   24.2435 C   0  0  0  0  0  0  0  0  0  0  0  0
    9.8453   -3.7598   24.5598 C   0  0  0  0  0  0  0  0  0  0  0  0
   10.4108   -4.3237   25.7245 C   0  0  0  0  0  0  0  0  0  0  0  0
   10.2164   -5.6905   26.0236 C   0  0  0  0  0  0  0  0  0  0  0  0
    9.4462   -6.5021   25.1714 C   0  0  0  0  0  0  0  0  0  0  0  0
    8.8897   -5.9114   24.0405 C   0  0  0  0  0  0  0  0  0  0  0  0
    9.0770   -4.5985   23.7475 C   0  0  0  0  0  0  0  0  0  0  0  0
    8.4035   -4.2905   22.5800 O   0  0  0  0  0  0  0  0  0  0  0  0
    7.7568   -5.4815   22.1112 C   0  0  0  0  0  0  0  0  0  0  0  0
    8.0938   -6.4917   23.0718 O   0  0  0  0  0  0  0  0  0  0  0  0
  1  2  1  0
  2  3  2  0
  3  4  1  0
  4  5  2  0
  5  6  1  0
  6  7  2  0
  7  8  1  0
  7  2  1  0
  8  9  1  0
  9 10  1  0
 10 11  2  0
 11 12  1  0
 12 13  2  0
 13 14  1  0
 14 15  2  0
 15 16  1  0
 15 10  1  0
 16 17  1  0
 17 18  1  0
 18 14  1  0
M  END
>  <Hit>  (76) 
Mpro-x0946_0

>  <Receptor>  (76) 
Mpro-x0387_0

>  <SCORE>  (76) 
-10.1669

>  <SCORE.norm>  (76) 
-0.56482500000000002

>  <SCORE.heavy>  (76) 
18

>  <OrigSmiles>  (76) 
Brc1ccccc1NCc1cccc2c1OCO2

>  <SuCOS_Score>  (76) 
0.140910343809487

>  <Max_SuCOS_Score>  (76) 
0.35847149831509673

>  <Cum_SuCOS_Score>  (76) 
4.3733354360089205

>  <TransFSScore_50nM>  (76) 
0.00027099999999999997

>  <TransFSScore_1uM>  (76) 
0.0021080000000000001

>  <TransFSScore_10nM>  (76) 
0.0029399999999999999

>  <TransFSScore_200nM>  (76) 
0.00067500000000000004

>  <TransFSScore>  (76) 
0.0014985

>  <FeatureSteinScore>  (76) 
0.21359596181078824

$$$$
Brc1ccccc1NCc1cn2ccnc2s1
     RDKit          3D

 17 19  0  0  0  0  0  0  0  0999 V2000
   11.7946   -1.7199   22.1711 Br  0  0  0  0  0  0  0  0  0  0  0  0
   10.6079   -0.2210   22.4054 C   0  0  0  0  0  0  0  0  0  0  0  0
   11.1735    1.0128   22.7535 C   0  0  0  0  0  0  0  0  0  0  0  0
   10.3678    2.1428   22.9067 C   0  0  0  0  0  0  0  0  0  0  0  0
    8.9895    2.0502   22.7167 C   0  0  0  0  0  0  0  0  0  0  0  0
    8.4127    0.8236   22.3785 C   0  0  0  0  0  0  0  0  0  0  0  0
    9.2097   -0.3305   22.2180 C   0  0  0  0  0  0  0  0  0  0  0  0
    8.6120   -1.5978   21.8669 N   0  0  0  0  0  0  0  0  0  0  0  0
    7.2125   -1.7379   21.4577 C   0  0  0  0  0  0  0  0  0  0  0  0
    6.9166   -0.8699   20.2749 C   0  0  0  0  0  0  0  0  0  0  0  0
    5.6502   -0.3668   19.9388 C   0  0  0  0  0  0  0  0  0  0  0  0
    5.7218    0.4484   18.8662 N   0  0  0  0  0  0  0  0  0  0  0  0
    4.8882    1.1911   18.1356 C   0  0  0  0  0  0  0  0  0  0  0  0
    5.6847    1.8101   17.1715 C   0  0  0  0  0  0  0  0  0  0  0  0
    6.9922    1.4508   17.3173 N   0  0  0  0  0  0  0  0  0  0  0  0
    6.9286    0.6174   18.3705 C   0  0  0  0  0  0  0  0  0  0  0  0
    8.1044   -0.2340   19.2101 S   0  0  0  0  0  0  0  0  0  0  0  0
  1  2  1  0
  2  3  2  0
  3  4  1  0
  4  5  2  0
  5  6  1  0
  6  7  2  0
  7  8  1  0
  7  2  1  0
  8  9  1  0
  9 10  1  0
 10 11  2  0
 11 12  1  0
 12 13  1  0
 13 14  2  0
 14 15  1  0
 15 16  2  0
 16 17  1  0
 16 12  1  0
 17 10  1  0
M  END
>  <Hit>  (77) 
Mpro-x0946_0

>  <Receptor>  (77) 
Mpro-x0387_0

>  <SCORE>  (77) 
-10.988099999999999

>  <SCORE.norm>  (77) 
-0.64635900000000002

>  <SCORE.heavy>  (77) 
17

>  <OrigSmiles>  (77) 
Brc1ccccc1NCc1cn2ccnc2s1

>  <SuCOS_Score>  (77) 
0.12141311693937293

>  <Max_SuCOS_Score>  (77) 
0.51435242733065023

>  <Cum_SuCOS_Score>  (77) 
5.2999412495257445

>  <TransFSScore_50nM>  (77) 
0.0010870000000000001

>  <TransFSScore_1uM>  (77) 
0.0080909999999999992

>  <TransFSScore_10nM>  (77) 
0.00071299999999999998

>  <TransFSScore_200nM>  (77) 
0.0042420000000000001

>  <TransFSScore>  (77) 
0.0035332499999999999

>  <FeatureSteinScore>  (77) 
0.3542362279112562

$$$$
Brc1ccccc1NCc1cn2ccsc2n1
     RDKit          3D

 17 19  0  0  0  0  0  0  0  0999 V2000
   12.8089   -0.9422   22.5956 Br  0  0  0  0  0  0  0  0  0  0  0  0
   11.1830    0.0594   22.8465 C   0  0  0  0  0  0  0  0  0  0  0  0
   11.2871    1.4490   22.9944 C   0  0  0  0  0  0  0  0  0  0  0  0
   10.1415    2.2322   23.1483 C   0  0  0  0  0  0  0  0  0  0  0  0
    8.8817    1.6346   23.1591 C   0  0  0  0  0  0  0  0  0  0  0  0
    8.7656    0.2492   23.0219 C   0  0  0  0  0  0  0  0  0  0  0  0
    9.9112   -0.5605   22.8642 C   0  0  0  0  0  0  0  0  0  0  0  0
    9.7893   -1.9926   22.7209 N   0  0  0  0  0  0  0  0  0  0  0  0
    8.5586   -2.6521   22.2777 C   0  0  0  0  0  0  0  0  0  0  0  0
    7.8651   -1.8330   21.2331 C   0  0  0  0  0  0  0  0  0  0  0  0
    6.5006   -1.5245   21.2130 C   0  0  0  0  0  0  0  0  0  0  0  0
    6.3324   -0.7037   20.1680 N   0  0  0  0  0  0  0  0  0  0  0  0
    5.3233   -0.0162   19.5937 C   0  0  0  0  0  0  0  0  0  0  0  0
    5.7755    0.7448   18.5048 C   0  0  0  0  0  0  0  0  0  0  0  0
    7.4678    0.5255   18.3094 S   0  0  0  0  0  0  0  0  0  0  0  0
    7.5115   -0.5273   19.6113 C   0  0  0  0  0  0  0  0  0  0  0  0
    8.5067   -1.1882   20.2208 N   0  0  0  0  0  0  0  0  0  0  0  0
  1  2  1  0
  2  3  2  0
  3  4  1  0
  4  5  2  0
  5  6  1  0
  6  7  2  0
  7  8  1  0
  7  2  1  0
  8  9  1  0
  9 10  1  0
 10 11  2  0
 11 12  1  0
 12 13  1  0
 13 14  2  0
 14 15  1  0
 15 16  1  0
 16 17  2  0
 16 12  1  0
 17 10  1  0
M  END
>  <Hit>  (78) 
Mpro-x0946_0

>  <Receptor>  (78) 
Mpro-x0387_0

>  <SCORE>  (78) 
-11.019500000000001

>  <SCORE.norm>  (78) 
-0.64820299999999997

>  <SCORE.heavy>  (78) 
17

>  <OrigSmiles>  (78) 
Brc1ccccc1NCc1cn2ccsc2n1

>  <SuCOS_Score>  (78) 
0.17874598480015219

>  <Max_SuCOS_Score>  (78) 
0.44188972067643179

>  <Cum_SuCOS_Score>  (78) 
5.4273320050469751

>  <TransFSScore_50nM>  (78) 
0.00027099999999999997

>  <TransFSScore_1uM>  (78) 
0.003009

>  <TransFSScore_10nM>  (78) 
6.2000000000000003e-05

>  <TransFSScore_200nM>  (78) 
0.018436000000000001

>  <TransFSScore>  (78) 
0.0054445000000000006

>  <FeatureSteinScore>  (78) 
0.30148893053607329

$$$$
Brc1ccccc1NCc1nc2ccccc2o1
     RDKit          3D

 18 20  0  0  0  0  0  0  0  0999 V2000
   12.4651   -0.5150   22.8265 Br  0  0  0  0  0  0  0  0  0  0  0  0
   10.7962    0.4367   22.9577 C   0  0  0  0  0  0  0  0  0  0  0  0
   10.7810    1.7962   22.6200 C   0  0  0  0  0  0  0  0  0  0  0  0
    9.5890    2.5237   22.6668 C   0  0  0  0  0  0  0  0  0  0  0  0
    8.4014    1.9002   23.0522 C   0  0  0  0  0  0  0  0  0  0  0  0
    8.4063    0.5466   23.3982 C   0  0  0  0  0  0  0  0  0  0  0  0
    9.6000   -0.2005   23.3651 C   0  0  0  0  0  0  0  0  0  0  0  0
    9.5698   -1.6059   23.6973 N   0  0  0  0  0  0  0  0  0  0  0  0
    9.3397   -2.4065   22.4873 C   0  0  0  0  0  0  0  0  0  0  0  0
    8.5344   -1.6292   21.4928 C   0  0  0  0  0  0  0  0  0  0  0  0
    9.0303   -1.1751   20.3148 N   0  0  0  0  0  0  0  0  0  0  0  0
    7.9739   -0.5771   19.7457 C   0  0  0  0  0  0  0  0  0  0  0  0
    7.8984    0.0692   18.5144 C   0  0  0  0  0  0  0  0  0  0  0  0
    6.6546    0.6168   18.1444 C   0  0  0  0  0  0  0  0  0  0  0  0
    5.5362    0.5030   19.0044 C   0  0  0  0  0  0  0  0  0  0  0  0
    5.6518   -0.1598   20.2420 C   0  0  0  0  0  0  0  0  0  0  0  0
    6.8960   -0.6878   20.5741 C   0  0  0  0  0  0  0  0  0  0  0  0
    7.2513   -1.3427   21.6517 O   0  0  0  0  0  0  0  0  0  0  0  0
  1  2  1  0
  2  3  2  0
  3  4  1  0
  4  5  2  0
  5  6  1  0
  6  7  2  0
  7  8  1  0
  7  2  1  0
  8  9  1  0
  9 10  1  0
 10 11  2  0
 11 12  1  0
 12 13  2  0
 13 14  1  0
 14 15  2  0
 15 16  1  0
 16 17  2  0
 17 18  1  0
 17 12  1  0
 18 10  1  0
M  END
>  <Hit>  (79) 
Mpro-x0946_0

>  <Receptor>  (79) 
Mpro-x0387_0

>  <SCORE>  (79) 
-13.0022

>  <SCORE.norm>  (79) 
-0.72234200000000004

>  <SCORE.heavy>  (79) 
18

>  <OrigSmiles>  (79) 
Brc1ccccc1NCc1nc2ccccc2o1

>  <SuCOS_Score>  (79) 
0.15399530953615492

>  <Max_SuCOS_Score>  (79) 
0.44027583351682531

>  <Cum_SuCOS_Score>  (79) 
5.2732642287330265

>  <TransFSScore_50nM>  (79) 
0.00141

>  <TransFSScore_1uM>  (79) 
0.0086320000000000008

>  <TransFSScore_10nM>  (79) 
0.0014239999999999999

>  <TransFSScore_200nM>  (79) 
0.0041799999999999997

>  <TransFSScore>  (79) 
0.0039115

>  <FeatureSteinScore>  (79) 
0.29817556616610946

$$$$
Brc1ccccc1Oc1nc2ccccc2o1
     RDKit          3D

 17 19  0  0  0  0  0  0  0  0999 V2000
   11.6291    0.3927   23.2232 Br  0  0  0  0  0  0  0  0  0  0  0  0
   10.5721    1.9938   23.1177 C   0  0  0  0  0  0  0  0  0  0  0  0
   11.2057    3.2363   23.2353 C   0  0  0  0  0  0  0  0  0  0  0  0
   10.4643    4.4169   23.1360 C   0  0  0  0  0  0  0  0  0  0  0  0
    9.0856    4.3631   22.9185 C   0  0  0  0  0  0  0  0  0  0  0  0
    8.4456    3.1245   22.8090 C   0  0  0  0  0  0  0  0  0  0  0  0
    9.1824    1.9285   22.9202 C   0  0  0  0  0  0  0  0  0  0  0  0
    8.5706    0.6741   22.7897 O   0  0  0  0  0  0  0  0  0  0  0  0
    7.9239    0.2164   21.6360 C   0  0  0  0  0  0  0  0  0  0  0  0
    7.9787    0.8342   20.4273 N   0  0  0  0  0  0  0  0  0  0  0  0
    7.1930    0.0669   19.6580 C   0  0  0  0  0  0  0  0  0  0  0  0
    6.8711    0.2263   18.3124 C   0  0  0  0  0  0  0  0  0  0  0  0
    6.0070   -0.7241   17.7346 C   0  0  0  0  0  0  0  0  0  0  0  0
    5.4934   -1.7912   18.5096 C   0  0  0  0  0  0  0  0  0  0  0  0
    5.8382   -1.9165   19.8695 C   0  0  0  0  0  0  0  0  0  0  0  0
    6.6948   -0.9595   20.4061 C   0  0  0  0  0  0  0  0  0  0  0  0
    7.1488   -0.8559   21.6305 O   0  0  0  0  0  0  0  0  0  0  0  0
  1  2  1  0
  2  3  2  0
  3  4  1  0
  4  5  2  0
  5  6  1  0
  6  7  2  0
  7  8  1  0
  7  2  1  0
  8  9  1  0
  9 10  2  0
 10 11  1  0
 11 12  2  0
 12 13  1  0
 13 14  2  0
 14 15  1  0
 15 16  2  0
 16 17  1  0
 16 11  1  0
 17  9  1  0
M  END
>  <Hit>  (80) 
Mpro-x0946_0

>  <Receptor>  (80) 
Mpro-x0387_0

>  <SCORE>  (80) 
-10.484999999999999

>  <SCORE.norm>  (80) 
-0.61676699999999995

>  <SCORE.heavy>  (80) 
17

>  <OrigSmiles>  (80) 
Brc1ccccc1Oc1nc2ccccc2o1

>  <SuCOS_Score>  (80) 
0.22800314241846567

>  <Max_SuCOS_Score>  (80) 
0.30729026063859005

>  <Cum_SuCOS_Score>  (80) 
3.7693237625895457

>  <TransFSScore_50nM>  (80) 
0.0073969999999999999

>  <TransFSScore_1uM>  (80) 
0.091012999999999997

>  <TransFSScore_10nM>  (80) 
0.0028939999999999999

>  <TransFSScore_200nM>  (80) 
0.044866000000000003

>  <TransFSScore>  (80) 
0.036542499999999999

>  <FeatureSteinScore>  (80) 
0.095427736227373564

$$$$
Brc1cccnc1NCCc1ccccn1
     RDKit          3D

 16 17  0  0  0  0  0  0  0  0999 V2000
    9.6751   -2.6729   23.2427 Br  0  0  0  0  0  0  0  0  0  0  0  0
   11.3269   -1.7062   23.4464 C   0  0  0  0  0  0  0  0  0  0  0  0
   12.2457   -1.9311   22.4202 C   0  0  0  0  0  0  0  0  0  0  0  0
   13.3901   -1.1532   22.3150 C   0  0  0  0  0  0  0  0  0  0  0  0
   13.6253   -0.1607   23.2563 C   0  0  0  0  0  0  0  0  0  0  0  0
   12.7569    0.0305   24.2799 N   0  0  0  0  0  0  0  0  0  0  0  0
   11.6197   -0.7152   24.4311 C   0  0  0  0  0  0  0  0  0  0  0  0
   10.7052   -0.3142   25.4827 N   0  0  0  0  0  0  0  0  0  0  0  0
    9.8133   -1.3496   26.0300 C   0  0  0  0  0  0  0  0  0  0  0  0
    9.9911   -1.5044   27.5458 C   0  0  0  0  0  0  0  0  0  0  0  0
    9.2175   -2.6781   28.0941 C   0  0  0  0  0  0  0  0  0  0  0  0
    9.7981   -3.9559   28.1128 C   0  0  0  0  0  0  0  0  0  0  0  0
    9.0799   -5.0294   28.6405 C   0  0  0  0  0  0  0  0  0  0  0  0
    7.7958   -4.8242   29.1441 C   0  0  0  0  0  0  0  0  0  0  0  0
    7.2459   -3.5413   29.1120 C   0  0  0  0  0  0  0  0  0  0  0  0
    7.9579   -2.5028   28.5939 N   0  0  0  0  0  0  0  0  0  0  0  0
  1  2  1  0
  2  3  2  0
  3  4  1  0
  4  5  2  0
  5  6  1  0
  6  7  2  0
  7  8  1  0
  7  2  1  0
  8  9  1  0
  9 10  1  0
 10 11  1  0
 11 12  2  0
 12 13  1  0
 13 14  2  0
 14 15  1  0
 15 16  2  0
 16 11  1  0
M  END
>  <Hit>  (81) 
Mpro-x0305_0

>  <Receptor>  (81) 
Mpro-x0387_0

>  <SCORE>  (81) 
-10.015700000000001

>  <SCORE.norm>  (81) 
-0.62597899999999995

>  <SCORE.heavy>  (81) 
16

>  <OrigSmiles>  (81) 
Brc1cccnc1NCCc1ccccn1

>  <SuCOS_Score>  (81) 
0.52043148777313519

>  <Max_SuCOS_Score>  (81) 
0.52043148777313519

>  <Cum_SuCOS_Score>  (81) 
4.1600358590157738

>  <TransFSScore_50nM>  (81) 
0.0021640000000000001

>  <TransFSScore_1uM>  (81) 
0.026474999999999999

>  <TransFSScore_10nM>  (81) 
0.000175

>  <TransFSScore_200nM>  (81) 
0.0042249999999999996

>  <TransFSScore>  (81) 
0.0082597499999999997

>  <FeatureSteinScore>  (81) 
0.35609548401517299

$$$$
Brc1cnc(C2CCCCN2Cc2ccsc2)nc1
     RDKit          3D

 19 21  0  0  0  0  0  0  0  0999 V2000
    4.3854    1.1864   20.2085 Br  0  0  0  0  0  0  0  0  0  0  0  0
    5.5382   -0.0321   21.1208 C   0  0  0  0  0  0  0  0  0  0  0  0
    6.0950    0.3013   22.3539 C   0  0  0  0  0  0  0  0  0  0  0  0
    6.9124   -0.5787   22.9861 N   0  0  0  0  0  0  0  0  0  0  0  0
    7.2074   -1.7892   22.4356 C   0  0  0  0  0  0  0  0  0  0  0  0
    8.1180   -2.7562   23.1746 C   0  0  2  0  0  0  0  0  0  0  0  0
    7.5614   -2.9207   24.6097 C   0  0  0  0  0  0  0  0  0  0  0  0
    8.4803   -3.7190   25.5408 C   0  0  0  0  0  0  0  0  0  0  0  0
    9.7082   -4.2602   24.8334 C   0  0  0  0  0  0  0  0  0  0  0  0
   10.4360   -3.1688   24.0475 C   0  0  0  0  0  0  0  0  0  0  0  0
    9.5306   -2.3028   23.2437 N   0  0  0  0  0  0  0  0  0  0  0  0
   10.0926   -1.7239   22.0002 C   0  0  0  0  0  0  0  0  0  0  0  0
   11.3788   -0.9675   22.1393 C   0  0  0  0  0  0  0  0  0  0  0  0
   12.6116   -1.3969   21.6014 C   0  0  0  0  0  0  0  0  0  0  0  0
   13.6783   -0.5835   21.9682 C   0  0  0  0  0  0  0  0  0  0  0  0
   13.0824    0.6524   22.9340 S   0  0  0  0  0  0  0  0  0  0  0  0
   11.4742    0.1902   22.9006 C   0  0  0  0  0  0  0  0  0  0  0  0
    6.6622   -2.1334   21.2329 N   0  0  0  0  0  0  0  0  0  0  0  0
    5.8398   -1.2771   20.5703 C   0  0  0  0  0  0  0  0  0  0  0  0
  1  2  1  0
  2  3  2  0
  3  4  1  0
  4  5  2  0
  5 18  1  0
  6  5  1  6
  6  7  1  0
  7  8  1  0
  8  9  1  0
  9 10  1  0
 10 11  1  0
 11 12  1  0
 11  6  1  0
 12 13  1  0
 13 14  1  0
 14 15  2  0
 15 16  1  0
 16 17  1  0
 17 13  2  0
 18 19  2  0
 19  2  1  0
M  END
>  <Hit>  (82) 
Mpro-x0387_0

>  <Receptor>  (82) 
Mpro-x1249_0

>  <SCORE>  (82) 
-13.564500000000001

>  <SCORE.norm>  (82) 
-0.71392100000000003

>  <SCORE.heavy>  (82) 
19

>  <OrigSmiles>  (82) 
Brc1cnc(C2CCCCN2Cc2ccsc2)nc1

>  <SuCOS_Score>  (82) 
0.3850328774605915

>  <Max_SuCOS_Score>  (82) 
0

>  <Cum_SuCOS_Score>  (82) 
0

>  <TransFSScore_50nM>  (82) 
0.0025839999999999999

>  <TransFSScore_1uM>  (82) 
0.014458

>  <TransFSScore_10nM>  (82) 
0.00082799999999999996

>  <TransFSScore_200nM>  (82) 
0.042867000000000002

>  <TransFSScore>  (82) 
0.01518425

>  <FeatureSteinScore>  (82) 
0.43915602421197059

$$$$
Brc1cncc(CN2CCCc3ccccc32)c1
     RDKit          3D

 18 20  0  0  0  0  0  0  0  0999 V2000
    5.9807   -5.9935   20.2515 Br  0  0  0  0  0  0  0  0  0  0  0  0
    6.1232   -4.1505   20.7305 C   0  0  0  0  0  0  0  0  0  0  0  0
    5.3765   -3.1854   20.0525 C   0  0  0  0  0  0  0  0  0  0  0  0
    5.4737   -1.8754   20.4051 N   0  0  0  0  0  0  0  0  0  0  0  0
    6.2968   -1.4680   21.4095 C   0  0  0  0  0  0  0  0  0  0  0  0
    7.0817   -2.3998   22.1093 C   0  0  0  0  0  0  0  0  0  0  0  0
    8.0082   -1.9476   23.2200 C   0  0  0  0  0  0  0  0  0  0  0  0
    9.3057   -1.4338   22.7152 N   0  0  0  0  0  0  0  0  0  0  0  0
   10.4300   -2.3414   23.0403 C   0  0  0  0  0  0  0  0  0  0  0  0
   11.7992   -1.7541   22.7071 C   0  0  0  0  0  0  0  0  0  0  0  0
   11.9780   -0.4154   23.4121 C   0  0  0  0  0  0  0  0  0  0  0  0
   10.8511    0.5141   23.0496 C   0  0  0  0  0  0  0  0  0  0  0  0
   11.1084    1.8882   22.8783 C   0  0  0  0  0  0  0  0  0  0  0  0
   10.0823    2.7599   22.5143 C   0  0  0  0  0  0  0  0  0  0  0  0
    8.7911    2.2728   22.3325 C   0  0  0  0  0  0  0  0  0  0  0  0
    8.5234    0.9144   22.4920 C   0  0  0  0  0  0  0  0  0  0  0  0
    9.5382    0.0032   22.8710 C   0  0  0  0  0  0  0  0  0  0  0  0
    6.9724   -3.7556   21.7657 C   0  0  0  0  0  0  0  0  0  0  0  0
  1  2  1  0
  2  3  2  0
  3  4  1  0
  4  5  2  0
  5  6  1  0
  6  7  1  0
  6 18  2  0
  7  8  1  0
  8  9  1  0
  9 10  1  0
 10 11  1  0
 11 12  1  0
 12 13  2  0
 13 14  1  0
 14 15  2  0
 15 16  1  0
 16 17  2  0
 17  8  1  0
 17 12  1  0
 18  2  1  0
M  END
>  <Hit>  (83) 
Mpro-x0195_0

>  <Receptor>  (83) 
Mpro-x0387_0

>  <SCORE>  (83) 
-12.413600000000001

>  <SCORE.norm>  (83) 
-0.68964199999999998

>  <SCORE.heavy>  (83) 
18

>  <OrigSmiles>  (83) 
Brc1cncc(CN2CCCc3ccccc32)c1

>  <SuCOS_Score>  (83) 
0.17153951417530838

>  <Max_SuCOS_Score>  (83) 
0.354868438405813

>  <Cum_SuCOS_Score>  (83) 
3.9594036081557307

>  <TransFSScore_50nM>  (83) 
0.017562000000000001

>  <TransFSScore_1uM>  (83) 
0.098714999999999997

>  <TransFSScore_10nM>  (83) 
0.0094059999999999994

>  <TransFSScore_200nM>  (83) 
0.030741999999999998

>  <TransFSScore>  (83) 
0.039106249999999995

>  <FeatureSteinScore>  (83) 
0.20627262824471826

$$$$
Brc1cnccc1CC1CCCNC1
     RDKit          3D

 14 15  0  0  0  0  0  0  0  0999 V2000
    3.5413    2.2601   19.4264 Br  0  0  0  0  0  0  0  0  0  0  0  0
    5.2873    1.5186   19.1298 C   0  0  0  0  0  0  0  0  0  0  0  0
    5.6401    1.1894   17.8178 C   0  0  0  0  0  0  0  0  0  0  0  0
    6.8583    0.6583   17.5420 N   0  0  0  0  0  0  0  0  0  0  0  0
    7.7662    0.4286   18.5239 C   0  0  0  0  0  0  0  0  0  0  0  0
    7.4618    0.7377   19.8498 C   0  0  0  0  0  0  0  0  0  0  0  0
    6.2136    1.2935   20.1691 C   0  0  0  0  0  0  0  0  0  0  0  0
    5.8991    1.6183   21.6138 C   0  0  0  0  0  0  0  0  0  0  0  0
    6.7269    2.8123   22.1386 C   0  0  1  0  0  0  0  0  0  0  0  0
    6.2817    3.1875   23.5726 C   0  0  0  0  0  0  0  0  0  0  0  0
    7.3827    3.9067   24.3715 C   0  0  0  0  0  0  0  0  0  0  0  0
    8.3621    4.6271   23.4408 C   0  0  0  0  0  0  0  0  0  0  0  0
    9.0528    3.6903   22.5340 N   0  0  0  0  0  0  0  0  0  0  0  0
    8.2447    2.5267   22.1116 C   0  0  0  0  0  0  0  0  0  0  0  0
  1  2  1  0
  2  3  2  0
  3  4  1  0
  4  5  2  0
  5  6  1  0
  6  7  2  0
  7  8  1  0
  7  2  1  0
  9  8  1  1
  9 10  1  0
 10 11  1  0
 11 12  1  0
 12 13  1  0
 13 14  1  0
 14  9  1  0
M  END
>  <Hit>  (84) 
Mpro-x0107_0

>  <Receptor>  (84) 
Mpro-x1249_0

>  <SCORE>  (84) 
-12.2568

>  <SCORE.norm>  (84) 
-0.87548499999999996

>  <SCORE.heavy>  (84) 
14

>  <OrigSmiles>  (84) 
Brc1cnccc1CC1CCCNC1

>  <SuCOS_Score>  (84) 
0.44818920034746007

>  <Max_SuCOS_Score>  (84) 
0.49384382736203852

>  <Cum_SuCOS_Score>  (84) 
3.3784197776153451

>  <TransFSScore_50nM>  (84) 
0.02009

>  <TransFSScore_1uM>  (84) 
0.13922499999999999

>  <TransFSScore_10nM>  (84) 
0.0050140000000000002

>  <TransFSScore_200nM>  (84) 
0.15401799999999999

>  <TransFSScore>  (84) 
0.079586749999999984

>  <FeatureSteinScore>  (84) 
0.37260581852457769

$$$$
Brc1cnccc1CN1CC2CCC(C1)O2
     RDKit          3D

 16 18  0  0  0  0  0  0  0  0999 V2000
    9.8940   -0.5254   21.1102 Br  0  0  0  0  0  0  0  0  0  0  0  0
    8.3620    0.0939   20.1330 C   0  0  0  0  0  0  0  0  0  0  0  0
    8.3613   -0.0822   18.7464 C   0  0  0  0  0  0  0  0  0  0  0  0
    7.3129    0.3429   17.9962 N   0  0  0  0  0  0  0  0  0  0  0  0
    6.2413    0.9523   18.5630 C   0  0  0  0  0  0  0  0  0  0  0  0
    6.1946    1.1537   19.9429 C   0  0  0  0  0  0  0  0  0  0  0  0
    7.2570    0.7162   20.7485 C   0  0  0  0  0  0  0  0  0  0  0  0
    7.1954    0.9580   22.2391 C   0  0  0  0  0  0  0  0  0  0  0  0
    8.4916    1.4613   22.7322 N   0  0  0  0  0  0  0  0  0  0  0  0
    8.7327    2.8462   22.2593 C   0  0  0  0  0  0  0  0  0  0  0  0
    9.9651    3.4510   22.9723 C   0  0  2  0  0  0  0  0  0  0  0  0
   11.2004    2.5636   22.8113 C   0  0  0  0  0  0  0  0  0  0  0  0
   11.1133    1.6442   24.0168 C   0  0  0  0  0  0  0  0  0  0  0  0
    9.8399    2.1228   24.7160 C   0  0  2  0  0  0  0  0  0  0  0  0
    8.5925    1.3612   24.2105 C   0  0  0  0  0  0  0  0  0  0  0  0
    9.6904    3.4711   24.3501 O   0  0  0  0  0  0  0  0  0  0  0  0
  1  2  1  0
  2  3  2  0
  3  4  1  0
  4  5  2  0
  5  6  1  0
  6  7  2  0
  7  8  1  0
  7  2  1  0
  8  9  1  0
  9 10  1  0
 11 10  1  6
 11 12  1  0
 12 13  1  0
 14 13  1  6
 14 15  1  0
 14 16  1  0
 15  9  1  0
 16 11  1  0
M  END
>  <Hit>  (85) 
Mpro-x0107_0

>  <Receptor>  (85) 
Mpro-x1249_0

>  <SCORE>  (85) 
-10.7723

>  <SCORE.norm>  (85) 
-0.67327199999999998

>  <SCORE.heavy>  (85) 
16

>  <OrigSmiles>  (85) 
Brc1cnccc1CN1CC2CCC(C1)O2

>  <SuCOS_Score>  (85) 
0.45049776331978453

>  <Max_SuCOS_Score>  (85) 
0.45049776331978453

>  <Cum_SuCOS_Score>  (85) 
4.0609548469745418

>  <TransFSScore_50nM>  (85) 
0.0042690000000000002

>  <TransFSScore_1uM>  (85) 
0.15531200000000001

>  <TransFSScore_10nM>  (85) 
0.0080409999999999995

>  <TransFSScore_200nM>  (85) 
0.013081000000000001

>  <TransFSScore>  (85) 
0.045175750000000001

>  <FeatureSteinScore>  (85) 
0.28603376617135728

$$$$
Brc1cnccc1CN1CCC12CCC2
     RDKit          3D

 15 17  0  0  0  0  0  0  0  0999 V2000
    3.5430    2.1481   19.5262 Br  0  0  0  0  0  0  0  0  0  0  0  0
    5.3048    1.4472   19.2300 C   0  0  0  0  0  0  0  0  0  0  0  0
    5.6172    0.9472   17.9626 C   0  0  0  0  0  0  0  0  0  0  0  0
    6.8511    0.4425   17.7053 N   0  0  0  0  0  0  0  0  0  0  0  0
    7.8122    0.4059   18.6629 C   0  0  0  0  0  0  0  0  0  0  0  0
    7.5483    0.8913   19.9442 C   0  0  0  0  0  0  0  0  0  0  0  0
    6.2850    1.4233   20.2410 C   0  0  0  0  0  0  0  0  0  0  0  0
    5.9951    1.9470   21.6286 C   0  0  0  0  0  0  0  0  0  0  0  0
    6.9888    2.9723   22.0067 N   0  0  0  0  0  0  0  0  0  0  0  0
    6.5266    3.7712   23.1623 C   0  0  0  0  0  0  0  0  0  0  0  0
    7.6283    3.2679   24.0891 C   0  0  0  0  0  0  0  0  0  0  0  0
    8.0814    2.4893   22.8704 C   0  0  0  0  0  0  0  0  0  0  0  0
    9.4738    2.7784   22.3262 C   0  0  0  0  0  0  0  0  0  0  0  0
    9.8105    1.2935   22.4688 C   0  0  0  0  0  0  0  0  0  0  0  0
    8.4121    0.9986   23.0127 C   0  0  0  0  0  0  0  0  0  0  0  0
  1  2  1  0
  2  3  2  0
  3  4  1  0
  4  5  2  0
  5  6  1  0
  6  7  2  0
  7  8  1  0
  7  2  1  0
  8  9  1  0
  9 10  1  0
 10 11  1  0
 11 12  1  0
 12 13  1  0
 12  9  1  0
 13 14  1  0
 14 15  1  0
 15 12  1  0
M  END
>  <Hit>  (86) 
Mpro-x0107_0

>  <Receptor>  (86) 
Mpro-x0305_0

>  <SCORE>  (86) 
-10.3089

>  <SCORE.norm>  (86) 
-0.68726100000000001

>  <SCORE.heavy>  (86) 
15

>  <OrigSmiles>  (86) 
Brc1cnccc1CN1CCC12CCC2

>  <SuCOS_Score>  (86) 
0.49920822923766994

>  <Max_SuCOS_Score>  (86) 
0.49920822923766994

>  <Cum_SuCOS_Score>  (86) 
3.9659938882491601

>  <TransFSScore_50nM>  (86) 
0.0047689999999999998

>  <TransFSScore_1uM>  (86) 
0.026182

>  <TransFSScore_10nM>  (86) 
0.0042469999999999999

>  <TransFSScore_200nM>  (86) 
0.017278000000000002

>  <TransFSScore>  (86) 
0.013119

>  <FeatureSteinScore>  (86) 
0.44352562011132562

$$$$
Brc1cnccc1CN1CCCNCC1
     RDKit          3D

 15 16  0  0  0  0  0  0  0  0999 V2000
    9.5949    0.0333   21.2359 Br  0  0  0  0  0  0  0  0  0  0  0  0
    8.1188    0.5227   20.1095 C   0  0  0  0  0  0  0  0  0  0  0  0
    8.1922    0.1969   18.7523 C   0  0  0  0  0  0  0  0  0  0  0  0
    7.1641    0.4898   17.9158 N   0  0  0  0  0  0  0  0  0  0  0  0
    6.0404    1.1019   18.3668 C   0  0  0  0  0  0  0  0  0  0  0  0
    5.9193    1.4494   19.7125 C   0  0  0  0  0  0  0  0  0  0  0  0
    6.9667    1.1674   20.6032 C   0  0  0  0  0  0  0  0  0  0  0  0
    6.8401    1.5510   22.0661 C   0  0  0  0  0  0  0  0  0  0  0  0
    7.7045    2.7093   22.4223 N   0  0  0  0  0  0  0  0  0  0  0  0
    8.3740    2.4394   23.7227 C   0  0  0  0  0  0  0  0  0  0  0  0
    9.5894    3.3427   23.9829 C   0  0  0  0  0  0  0  0  0  0  0  0
    9.2783    4.8449   23.9128 C   0  0  0  0  0  0  0  0  0  0  0  0
    9.0715    5.2922   22.5239 N   0  0  0  0  0  0  0  0  0  0  0  0
    7.6697    5.2261   22.0728 C   0  0  0  0  0  0  0  0  0  0  0  0
    6.8971    3.9590   22.5019 C   0  0  0  0  0  0  0  0  0  0  0  0
  1  2  1  0
  2  3  2  0
  3  4  1  0
  4  5  2  0
  5  6  1  0
  6  7  2  0
  7  8  1  0
  7  2  1  0
  8  9  1  0
  9 10  1  0
 10 11  1  0
 11 12  1  0
 12 13  1  0
 13 14  1  0
 14 15  1  0
 15  9  1  0
M  END
>  <Hit>  (87) 
Mpro-x0107_0

>  <Receptor>  (87) 
Mpro-x0874_0

>  <SCORE>  (87) 
-12.529

>  <SCORE.norm>  (87) 
-0.83526800000000001

>  <SCORE.heavy>  (87) 
15

>  <OrigSmiles>  (87) 
Brc1cnccc1CN1CCCNCC1

>  <SuCOS_Score>  (87) 
0.46098728618301621

>  <Max_SuCOS_Score>  (87) 
0.46098728618301621

>  <Cum_SuCOS_Score>  (87) 
3.5477755458473079

>  <TransFSScore_50nM>  (87) 
0.0054180000000000001

>  <TransFSScore_1uM>  (87) 
0.021984

>  <TransFSScore_10nM>  (87) 
0.0039509999999999997

>  <TransFSScore_200nM>  (87) 
0.019536000000000001

>  <TransFSScore>  (87) 
0.012722250000000001

>  <FeatureSteinScore>  (87) 
0.44597084643720247

$$$$
Brc1cnccc1CN1CCNCC1
     RDKit          3D

 14 15  0  0  0  0  0  0  0  0999 V2000
    3.8004    2.3123   19.8862 Br  0  0  0  0  0  0  0  0  0  0  0  0
    4.9877    0.9285   19.2860 C   0  0  0  0  0  0  0  0  0  0  0  0
    4.7074    0.3006   18.0690 C   0  0  0  0  0  0  0  0  0  0  0  0
    5.5084   -0.6918   17.6038 N   0  0  0  0  0  0  0  0  0  0  0  0
    6.5979   -1.1038   18.3001 C   0  0  0  0  0  0  0  0  0  0  0  0
    6.9185   -0.5105   19.5214 C   0  0  0  0  0  0  0  0  0  0  0  0
    6.1117    0.5183   20.0302 C   0  0  0  0  0  0  0  0  0  0  0  0
    6.4705    1.1703   21.3508 C   0  0  0  0  0  0  0  0  0  0  0  0
    7.8751    1.6475   21.3767 N   0  0  0  0  0  0  0  0  0  0  0  0
    8.0263    2.7066   22.4055 C   0  0  0  0  0  0  0  0  0  0  0  0
    9.4999    2.9559   22.7988 C   0  0  0  0  0  0  0  0  0  0  0  0
   10.4199    2.4696   21.7647 N   0  0  0  0  0  0  0  0  0  0  0  0
   10.2843    1.0163   21.5597 C   0  0  0  0  0  0  0  0  0  0  0  0
    8.8167    0.5367   21.6353 C   0  0  0  0  0  0  0  0  0  0  0  0
  1  2  1  0
  2  3  2  0
  3  4  1  0
  4  5  2  0
  5  6  1  0
  6  7  2  0
  7  8  1  0
  7  2  1  0
  8  9  1  0
  9 10  1  0
 10 11  1  0
 11 12  1  0
 12 13  1  0
 13 14  1  0
 14  9  1  0
M  END
>  <Hit>  (88) 
Mpro-x0107_0

>  <Receptor>  (88) 
Mpro-x1249_0

>  <SCORE>  (88) 
-13.159700000000001

>  <SCORE.norm>  (88) 
-0.93998199999999998

>  <SCORE.heavy>  (88) 
14

>  <OrigSmiles>  (88) 
Brc1cnccc1CN1CCNCC1

>  <SuCOS_Score>  (88) 
0.47668205626226279

>  <Max_SuCOS_Score>  (88) 
0.52076520604908949

>  <Cum_SuCOS_Score>  (88) 
3.7260014450205365

>  <TransFSScore_50nM>  (88) 
0.0053210000000000002

>  <TransFSScore_1uM>  (88) 
0.021545000000000002

>  <TransFSScore_10nM>  (88) 
0.0025089999999999999

>  <TransFSScore_200nM>  (88) 
0.028095999999999999

>  <TransFSScore>  (88) 
0.01436775

>  <FeatureSteinScore>  (88) 
0.32608988883423867

$$$$
Brc1cnn(C2CCN(Cc3ccsc3)CC2)c1
     RDKit          3D

 18 20  0  0  0  0  0  0  0  0999 V2000
    5.6789   -3.7237   29.7903 Br  0  0  0  0  0  0  0  0  0  0  0  0
    6.9583   -4.5405   28.6373 C   0  0  0  0  0  0  0  0  0  0  0  0
    7.7628   -5.6266   28.9188 C   0  0  0  0  0  0  0  0  0  0  0  0
    8.5253   -5.8815   27.8402 N   0  0  0  0  0  0  0  0  0  0  0  0
    8.2335   -5.0035   26.8922 N   0  0  0  0  0  0  0  0  0  0  0  0
    8.8782   -4.9680   25.5730 C   0  0  0  0  0  0  0  0  0  0  0  0
   10.3428   -4.5355   25.6823 C   0  0  0  0  0  0  0  0  0  0  0  0
   10.9572   -3.7792   24.5052 C   0  0  0  0  0  0  0  0  0  0  0  0
   10.0044   -3.0813   23.6377 N   0  0  0  0  0  0  0  0  0  0  0  0
   10.5872   -2.3828   22.4724 C   0  0  0  0  0  0  0  0  0  0  0  0
   11.8214   -1.5654   22.7550 C   0  0  0  0  0  0  0  0  0  0  0  0
   11.8474   -0.4028   23.5564 C   0  0  0  0  0  0  0  0  0  0  0  0
   13.0947    0.2141   23.5819 C   0  0  0  0  0  0  0  0  0  0  0  0
   14.1438   -0.6896   22.6345 S   0  0  0  0  0  0  0  0  0  0  0  0
   13.0492   -1.8701   22.1794 C   0  0  0  0  0  0  0  0  0  0  0  0
    8.8309   -3.9013   23.3007 C   0  0  0  0  0  0  0  0  0  0  0  0
    8.0385   -4.1727   24.5794 C   0  0  0  0  0  0  0  0  0  0  0  0
    7.2782   -4.1659   27.3486 C   0  0  0  0  0  0  0  0  0  0  0  0
  1  2  1  0
  2  3  1  0
  3  4  2  0
  4  5  1  0
  5  6  1  0
  5 18  1  0
  6  7  1  0
  7  8  1  0
  8  9  1  0
  9 10  1  0
  9 16  1  0
 10 11  1  0
 11 12  1  0
 12 13  2  0
 13 14  1  0
 14 15  1  0
 15 11  2  0
 16 17  1  0
 17  6  1  0
 18  2  2  0
M  END
>  <Hit>  (89) 
Mpro-x0387_0

>  <Receptor>  (89) 
Mpro-x0387_0

>  <SCORE>  (89) 
-11.619

>  <SCORE.norm>  (89) 
-0.64550300000000005

>  <SCORE.heavy>  (89) 
18

>  <OrigSmiles>  (89) 
Brc1cnn(C2CCN(Cc3ccsc3)CC2)c1

>  <SuCOS_Score>  (89) 
0.59131549476397072

>  <Max_SuCOS_Score>  (89) 
0

>  <Cum_SuCOS_Score>  (89) 
0

>  <TransFSScore_50nM>  (89) 
0.0016310000000000001

>  <TransFSScore_1uM>  (89) 
0.086796999999999999

>  <TransFSScore_10nM>  (89) 
0.023591000000000001

>  <TransFSScore_200nM>  (89) 
0.12662200000000001

>  <TransFSScore>  (89) 
0.059660249999999998

>  <FeatureSteinScore>  (89) 
0.39890175125306776

$$$$
Brc1csc(CN2CCCc3ccccc32)c1
     RDKit          3D

 17 19  0  0  0  0  0  0  0  0999 V2000
    7.7666    0.4483   18.4206 Br  0  0  0  0  0  0  0  0  0  0  0  0
    7.8713   -0.5699   20.0298 C   0  0  0  0  0  0  0  0  0  0  0  0
    6.8414   -1.3880   20.4759 C   0  0  0  0  0  0  0  0  0  0  0  0
    7.3297   -2.1057   21.9165 S   0  0  0  0  0  0  0  0  0  0  0  0
    8.8430   -1.3734   21.9825 C   0  0  0  0  0  0  0  0  0  0  0  0
    9.8675   -1.5985   23.0521 C   0  0  0  0  0  0  0  0  0  0  0  0
   11.1201   -0.9070   22.7181 N   0  0  0  0  0  0  0  0  0  0  0  0
   12.0736   -1.6343   21.8630 C   0  0  0  0  0  0  0  0  0  0  0  0
   13.3109   -0.8173   21.4646 C   0  0  0  0  0  0  0  0  0  0  0  0
   13.7833    0.1078   22.5842 C   0  0  0  0  0  0  0  0  0  0  0  0
   12.6551    1.0044   23.0184 C   0  0  0  0  0  0  0  0  0  0  0  0
   12.8905    2.3501   23.3509 C   0  0  0  0  0  0  0  0  0  0  0  0
   11.8365    3.1648   23.7709 C   0  0  0  0  0  0  0  0  0  0  0  0
   10.5486    2.6378   23.8775 C   0  0  0  0  0  0  0  0  0  0  0  0
   10.3061    1.3006   23.5586 C   0  0  0  0  0  0  0  0  0  0  0  0
   11.3567    0.4674   23.1187 C   0  0  0  0  0  0  0  0  0  0  0  0
    8.9943   -0.5626   20.8653 C   0  0  0  0  0  0  0  0  0  0  0  0
  1  2  1  0
  2  3  2  0
  3  4  1  0
  4  5  1  0
  5  6  1  0
  5 17  2  0
  6  7  1  0
  7  8  1  0
  8  9  1  0
  9 10  1  0
 10 11  1  0
 11 12  2  0
 12 13  1  0
 13 14  2  0
 14 15  1  0
 15 16  2  0
 16  7  1  0
 16 11  1  0
 17  2  1  0
M  END
>  <Hit>  (90) 
Mpro-x0195_0

>  <Receptor>  (90) 
Mpro-x1249_0

>  <SCORE>  (90) 
-11.557

>  <SCORE.norm>  (90) 
-0.67982399999999998

>  <SCORE.heavy>  (90) 
17

>  <OrigSmiles>  (90) 
Brc1csc(CN2CCCc3ccccc32)c1

>  <SuCOS_Score>  (90) 
0.41497498404086619

>  <Max_SuCOS_Score>  (90) 
0.4559758944591743

>  <Cum_SuCOS_Score>  (90) 
5.5337402426986868

>  <TransFSScore_50nM>  (90) 
0.012555

>  <TransFSScore_1uM>  (90) 
0.097832000000000002

>  <TransFSScore_10nM>  (90) 
0.052048999999999998

>  <TransFSScore_200nM>  (90) 
0.025062000000000001

>  <TransFSScore>  (90) 
0.046874499999999999

>  <FeatureSteinScore>  (90) 
0.61111739857232994

$$$$
Brc1sccc1CN1CCC(C2OCCO2)CC1
     RDKit          3D

 18 20  0  0  0  0  0  0  0  0999 V2000
   11.4919    1.2210   24.2856 Br  0  0  0  0  0  0  0  0  0  0  0  0
   12.2756    0.1539   22.9005 C   0  0  0  0  0  0  0  0  0  0  0  0
   13.9176    0.1186   22.6124 S   0  0  0  0  0  0  0  0  0  0  0  0
   13.9064   -1.1542   21.5214 C   0  0  0  0  0  0  0  0  0  0  0  0
   12.5914   -1.5764   21.3528 C   0  0  0  0  0  0  0  0  0  0  0  0
   11.6719   -0.8474   22.1348 C   0  0  0  0  0  0  0  0  0  0  0  0
   10.1871   -1.0678   22.1060 C   0  0  0  0  0  0  0  0  0  0  0  0
    9.8693   -2.3597   22.7259 N   0  0  0  0  0  0  0  0  0  0  0  0
   10.2989   -2.3682   24.1319 C   0  0  0  0  0  0  0  0  0  0  0  0
   10.0785   -3.7538   24.7090 C   0  0  0  0  0  0  0  0  0  0  0  0
    8.5785   -3.9987   24.7965 C   0  0  0  0  0  0  0  0  0  0  0  0
    8.2538   -5.3860   25.3921 C   0  0  0  0  0  0  0  0  0  0  0  0
    6.8565   -5.5769   25.4283 O   0  0  0  0  0  0  0  0  0  0  0  0
    6.5536   -5.9524   26.7351 C   0  0  0  0  0  0  0  0  0  0  0  0
    7.8610   -6.1781   27.4333 C   0  0  0  0  0  0  0  0  0  0  0  0
    8.8226   -5.5211   26.6751 O   0  0  0  0  0  0  0  0  0  0  0  0
    7.8960   -3.7953   23.4376 C   0  0  0  0  0  0  0  0  0  0  0  0
    8.4396   -2.6615   22.5554 C   0  0  0  0  0  0  0  0  0  0  0  0
  1  2  1  0
  2  3  1  0
  3  4  1  0
  4  5  2  0
  5  6  1  0
  6  7  1  0
  6  2  2  0
  7  8  1  0
  8  9  1  0
  9 10  1  0
 10 11  1  0
 11 12  1  0
 11 17  1  0
 12 13  1  0
 13 14  1  0
 14 15  1  0
 15 16  1  0
 16 12  1  0
 17 18  1  0
 18  8  1  0
M  END
>  <Hit>  (91) 
Mpro-x0387_0

>  <Receptor>  (91) 
Mpro-x1249_0

>  <SCORE>  (91) 
-12.3148

>  <SCORE.norm>  (91) 
-0.68415700000000002

>  <SCORE.heavy>  (91) 
18

>  <OrigSmiles>  (91) 
Brc1sccc1CN1CCC(C2OCCO2)CC1

>  <SuCOS_Score>  (91) 
0.42103737584012474

>  <Max_SuCOS_Score>  (91) 
0

>  <Cum_SuCOS_Score>  (91) 
0

>  <TransFSScore_50nM>  (91) 
0.00091699999999999995

>  <TransFSScore_1uM>  (91) 
0.011285999999999999

>  <TransFSScore_10nM>  (91) 
0.0057169999999999999

>  <TransFSScore_200nM>  (91) 
0.002859

>  <TransFSScore>  (91) 
0.0051947499999999997

>  <FeatureSteinScore>  (91) 
0.48478315843252395

$$$$
Brc1sccc1CN1CCCC(C2OCCO2)C1
     RDKit          3D

 18 20  0  0  0  0  0  0  0  0999 V2000
   10.3995    1.1501   23.5725 Br  0  0  0  0  0  0  0  0  0  0  0  0
   11.8119    0.0528   22.8986 C   0  0  0  0  0  0  0  0  0  0  0  0
   13.4324    0.4438   23.0088 S   0  0  0  0  0  0  0  0  0  0  0  0
   14.0265   -0.9504   22.2884 C   0  0  0  0  0  0  0  0  0  0  0  0
   12.9461   -1.7591   21.9455 C   0  0  0  0  0  0  0  0  0  0  0  0
   11.6985   -1.2007   22.3039 C   0  0  0  0  0  0  0  0  0  0  0  0
   10.3757   -1.9008   22.1326 C   0  0  0  0  0  0  0  0  0  0  0  0
    9.7538   -2.3994   23.3774 N   0  0  0  0  0  0  0  0  0  0  0  0
   10.5167   -3.4092   24.1153 C   0  0  0  0  0  0  0  0  0  0  0  0
    9.8424   -3.9623   25.3687 C   0  0  0  0  0  0  0  0  0  0  0  0
    8.3250   -3.8752   25.4801 C   0  0  0  0  0  0  0  0  0  0  0  0
    7.6478   -2.8296   24.5935 C   0  0  1  0  0  0  0  0  0  0  0  0
    7.4650   -1.4607   25.3041 C   0  0  0  0  0  0  0  0  0  0  0  0
    6.7188   -1.6463   26.4875 O   0  0  0  0  0  0  0  0  0  0  0  0
    7.4149   -0.9801   27.4939 C   0  0  0  0  0  0  0  0  0  0  0  0
    8.5542   -0.2657   26.8323 C   0  0  0  0  0  0  0  0  0  0  0  0
    8.7086   -0.8590   25.5859 O   0  0  0  0  0  0  0  0  0  0  0  0
    8.3351   -2.7494   23.2186 C   0  0  0  0  0  0  0  0  0  0  0  0
  1  2  1  0
  2  3  1  0
  3  4  1  0
  4  5  2  0
  5  6  1  0
  6  7  1  0
  6  2  2  0
  7  8  1  0
  8  9  1  0
  9 10  1  0
 10 11  1  0
 11 12  1  0
 12 13  1  1
 12 18  1  0
 13 14  1  0
 14 15  1  0
 15 16  1  0
 16 17  1  0
 17 13  1  0
 18  8  1  0
M  END
>  <Hit>  (92) 
Mpro-x0387_0

>  <Receptor>  (92) 
Mpro-x0305_0

>  <SCORE>  (92) 
-13.482100000000001

>  <SCORE.norm>  (92) 
-0.74900800000000001

>  <SCORE.heavy>  (92) 
18

>  <OrigSmiles>  (92) 
Brc1sccc1CN1CCCC(C2OCCO2)C1

>  <SuCOS_Score>  (92) 
0.45828030144936294

>  <Max_SuCOS_Score>  (92) 
0

>  <Cum_SuCOS_Score>  (92) 
0

>  <TransFSScore_50nM>  (92) 
0.00068800000000000003

>  <TransFSScore_1uM>  (92) 
0.010717000000000001

>  <TransFSScore_10nM>  (92) 
0.0050039999999999998

>  <TransFSScore_200nM>  (92) 
0.0056839999999999998

>  <TransFSScore>  (92) 
0.0055232500000000004

>  <FeatureSteinScore>  (92) 
0.50542537025537171

$$$$
Brc1sccc1CN1CCCCC1C1OCCO1
     RDKit          3D

 18 20  0  0  0  0  0  0  0  0999 V2000
   11.8980   -0.0591   25.4867 Br  0  0  0  0  0  0  0  0  0  0  0  0
   11.9233   -0.7693   23.7121 C   0  0  0  0  0  0  0  0  0  0  0  0
   13.2650   -0.7581   22.7174 S   0  0  0  0  0  0  0  0  0  0  0  0
   12.5653   -1.5689   21.4253 C   0  0  0  0  0  0  0  0  0  0  0  0
   11.2479   -1.8688   21.7588 C   0  0  0  0  0  0  0  0  0  0  0  0
   10.8902   -1.4289   23.0512 C   0  0  0  0  0  0  0  0  0  0  0  0
    9.5668   -1.7206   23.7029 C   0  0  0  0  0  0  0  0  0  0  0  0
    9.3603   -3.1153   24.1658 N   0  0  0  0  0  0  0  0  0  0  0  0
   10.4792   -3.6622   24.9494 C   0  0  0  0  0  0  0  0  0  0  0  0
   10.3157   -5.0935   25.4499 C   0  0  0  0  0  0  0  0  0  0  0  0
    9.3529   -6.0035   24.7120 C   0  0  0  0  0  0  0  0  0  0  0  0
    8.2673   -5.2926   23.9351 C   0  0  0  0  0  0  0  0  0  0  0  0
    8.8218   -4.0765   23.1628 C   0  0  1  0  0  0  0  0  0  0  0  0
    7.6768   -3.5020   22.2640 C   0  0  0  0  0  0  0  0  0  0  0  0
    6.7347   -2.8129   23.0534 O   0  0  0  0  0  0  0  0  0  0  0  0
    5.5008   -3.1021   22.4833 C   0  0  0  0  0  0  0  0  0  0  0  0
    5.6880   -4.3688   21.7025 C   0  0  0  0  0  0  0  0  0  0  0  0
    7.0601   -4.5322   21.5219 O   0  0  0  0  0  0  0  0  0  0  0  0
  1  2  1  0
  2  3  1  0
  3  4  1  0
  4  5  2  0
  5  6  1  0
  6  7  1  0
  6  2  2  0
  7  8  1  0
  8  9  1  0
  9 10  1  0
 10 11  1  0
 11 12  1  0
 12 13  1  0
 13 14  1  1
 13  8  1  0
 14 15  1  0
 15 16  1  0
 16 17  1  0
 17 18  1  0
 18 14  1  0
M  END
>  <Hit>  (93) 
Mpro-x0387_0

>  <Receptor>  (93) 
Mpro-x0387_0

>  <SCORE>  (93) 
-10.995100000000001

>  <SCORE.norm>  (93) 
-0.61084099999999997

>  <SCORE.heavy>  (93) 
18

>  <OrigSmiles>  (93) 
Brc1sccc1CN1CCCCC1C1OCCO1

>  <SuCOS_Score>  (93) 
0.60882303302430762

>  <Max_SuCOS_Score>  (93) 
0

>  <Cum_SuCOS_Score>  (93) 
0

>  <TransFSScore_50nM>  (93) 
0.00063500000000000004

>  <TransFSScore_1uM>  (93) 
0.044519000000000003

>  <TransFSScore_10nM>  (93) 
0.0051349999999999998

>  <TransFSScore_200nM>  (93) 
0.0076889999999999997

>  <TransFSScore>  (93) 
0.0144945

>  <FeatureSteinScore>  (93) 
0.58207621611587002

$$$$
C#CC(=O)C(O)c1cc(Cl)cc(Br)c1
     RDKit          3D

 14 14  0  0  0  0  0  0  0  0999 V2000
   10.1849    6.2171   23.1022 C   0  0  0  0  0  0  0  0  0  0  0  0
   11.2638    5.8049   22.7573 C   0  0  0  0  0  0  0  0  0  0  0  0
   12.5498    5.3103   22.3433 C   0  0  0  0  0  0  0  0  0  0  0  0
   13.1628    5.8972   21.4120 O   0  0  0  0  0  0  0  0  0  0  0  0
   13.1630    4.1229   23.0443 C   0  0  1  0  0  0  0  0  0  0  0  0
   13.3979    4.3900   24.4057 O   0  0  0  0  0  0  0  0  0  0  0  0
   12.3100    2.8792   22.8790 C   0  0  0  0  0  0  0  0  0  0  0  0
   10.9060    2.9689   22.8494 C   0  0  0  0  0  0  0  0  0  0  0  0
   10.1296    1.8124   22.7126 C   0  0  0  0  0  0  0  0  0  0  0  0
    8.3800    1.9324   22.6755 Cl  0  0  0  0  0  0  0  0  0  0  0  0
   10.7462    0.5601   22.6018 C   0  0  0  0  0  0  0  0  0  0  0  0
   12.1422    0.4630   22.6280 C   0  0  0  0  0  0  0  0  0  0  0  0
   13.0063   -1.2398   22.4409 Br  0  0  0  0  0  0  0  0  0  0  0  0
   12.9191    1.6164   22.7742 C   0  0  0  0  0  0  0  0  0  0  0  0
  1  2  3  0
  2  3  1  0
  3  4  2  0
  3  5  1  0
  5  6  1  1
  5  7  1  0
  7  8  2  0
  8  9  1  0
  9 10  1  0
  9 11  2  0
 11 12  1  0
 12 13  1  0
 12 14  2  0
 14  7  1  0
M  END
>  <Hit>  (94) 
Mpro-x0946_0

>  <Receptor>  (94) 
Mpro-x0305_0

>  <SCORE>  (94) 
-11.027699999999999

>  <SCORE.norm>  (94) 
-0.78769400000000001

>  <SCORE.heavy>  (94) 
14

>  <OrigSmiles>  (94) 
C#CC(=O)C(O)c1cc(Cl)cc(Br)c1

>  <SuCOS_Score>  (94) 
0.45197195146119573

>  <Max_SuCOS_Score>  (94) 
0.45197195146119573

>  <Cum_SuCOS_Score>  (94) 
3.5323527556651815

>  <TransFSScore_50nM>  (94) 
0.034347999999999997

>  <TransFSScore_1uM>  (94) 
0.055641000000000003

>  <TransFSScore_10nM>  (94) 
0.016669

>  <TransFSScore_200nM>  (94) 
0.030755000000000001

>  <TransFSScore>  (94) 
0.034353250000000002

>  <FeatureSteinScore>  (94) 
0.26267017553301591

$$$$
C#CC(=O)C(O)c1ccc(Br)cc1Cl
     RDKit          3D

 14 14  0  0  0  0  0  0  0  0999 V2000
    7.7300    6.2768   21.5459 C   0  0  0  0  0  0  0  0  0  0  0  0
    8.3588    5.7978   22.4558 C   0  0  0  0  0  0  0  0  0  0  0  0
    9.1074    5.2265   23.5430 C   0  0  0  0  0  0  0  0  0  0  0  0
    8.4879    4.7204   24.5155 O   0  0  0  0  0  0  0  0  0  0  0  0
   10.6134    5.2344   23.5165 C   0  0  2  0  0  0  0  0  0  0  0  0
   11.0874    6.0967   22.5153 O   0  0  0  0  0  0  0  0  0  0  0  0
   11.1442    3.8268   23.3127 C   0  0  0  0  0  0  0  0  0  0  0  0
   10.2173    2.7829   23.1220 C   0  0  0  0  0  0  0  0  0  0  0  0
   10.6478    1.4721   22.8952 C   0  0  0  0  0  0  0  0  0  0  0  0
   12.0137    1.1831   22.8451 C   0  0  0  0  0  0  0  0  0  0  0  0
   12.6229   -0.6012   22.4912 Br  0  0  0  0  0  0  0  0  0  0  0  0
   12.9465    2.2048   23.0298 C   0  0  0  0  0  0  0  0  0  0  0  0
   12.5281    3.5221   23.2555 C   0  0  0  0  0  0  0  0  0  0  0  0
   13.7828    4.7446   23.4435 Cl  0  0  0  0  0  0  0  0  0  0  0  0
  1  2  3  0
  2  3  1  0
  3  4  2  0
  3  5  1  0
  5  6  1  6
  5  7  1  0
  7  8  2  0
  8  9  1  0
  9 10  2  0
 10 11  1  0
 10 12  1  0
 12 13  2  0
 13 14  1  0
 13  7  1  0
M  END
>  <Hit>  (95) 
Mpro-x0946_0

>  <Receptor>  (95) 
Mpro-x0305_0

>  <SCORE>  (95) 
-10.2301

>  <SCORE.norm>  (95) 
-0.73072099999999995

>  <SCORE.heavy>  (95) 
14

>  <OrigSmiles>  (95) 
C#CC(=O)C(O)c1ccc(Br)cc1Cl

>  <SuCOS_Score>  (95) 
0.60956157360258323

>  <Max_SuCOS_Score>  (95) 
0.60956157360258323

>  <Cum_SuCOS_Score>  (95) 
3.4370825313355549

>  <TransFSScore_50nM>  (95) 
0.0076490000000000004

>  <TransFSScore_1uM>  (95) 
0.029075

>  <TransFSScore_10nM>  (95) 
0.0021819999999999999

>  <TransFSScore_200nM>  (95) 
0.0097929999999999996

>  <TransFSScore>  (95) 
0.012174749999999998

>  <FeatureSteinScore>  (95) 
0.53309728712852167

$$$$
C#CC(=O)C12CCC(CC1)N2
     RDKit          3D

 11 12  0  0  0  0  0  0  0  0999 V2000
    9.2649   -2.2302   22.3077 C   0  0  0  0  0  0  0  0  0  0  0  0
    8.7922   -3.2936   22.6219 C   0  0  0  0  0  0  0  0  0  0  0  0
    8.2248   -4.5677   22.9999 C   0  0  0  0  0  0  0  0  0  0  0  0
    8.8474   -5.2920   23.8208 O   0  0  0  0  0  0  0  0  0  0  0  0
    6.9122   -5.0468   22.4304 C   0  0  2  0  0  0  0  0  0  0  0  0
    6.0169   -5.7642   23.4629 C   0  0  0  0  0  0  0  0  0  0  0  0
    4.6425   -5.6432   22.7971 C   0  0  0  0  0  0  0  0  0  0  0  0
    4.9940   -4.8740   21.5088 C   0  0  2  0  0  0  0  0  0  0  0  0
    5.7047   -5.8339   20.5433 C   0  0  0  0  0  0  0  0  0  0  0  0
    7.0843   -5.9603   21.2031 C   0  0  0  0  0  0  0  0  0  0  0  0
    6.0678   -3.9815   21.9095 N   0  0  0  0  0  0  0  0  0  0  0  0
  1  2  3  0
  2  3  1  0
  3  4  2  0
  5  3  1  1
  5  6  1  0
  6  7  1  0
  8  7  1  1
  8  9  1  0
  8 11  1  0
  9 10  1  0
 10  5  1  0
 11  5  1  0
M  END
>  <Hit>  (96) 
Mpro-x0991_0

>  <Receptor>  (96) 
Mpro-x0387_0

>  <SCORE>  (96) 
-1.4164099999999999

>  <SCORE.norm>  (96) 
-0.12876499999999999

>  <SCORE.heavy>  (96) 
11

>  <OrigSmiles>  (96) 
C#CC(=O)C12CCC(CC1)N2

>  <SuCOS_Score>  (96) 
0.22614618131591041

>  <Max_SuCOS_Score>  (96) 
0.24026141896161871

>  <Cum_SuCOS_Score>  (96) 
1.2319850879096568

>  <TransFSScore_50nM>  (96) 
0.032432000000000002

>  <TransFSScore_1uM>  (96) 
0.298927

>  <TransFSScore_10nM>  (96) 
0.017493999999999999

>  <TransFSScore_200nM>  (96) 
0.19675799999999999

>  <TransFSScore>  (96) 
0.13640275000000002

>  <FeatureSteinScore>  (96) 
0.32022011308794512

$$$$
C#CC(=O)C1C2CNC1C2
     RDKit          3D

 10 11  0  0  0  0  0  0  0  0999 V2000
    8.6091   -2.7413   22.0267 C   0  0  0  0  0  0  0  0  0  0  0  0
    8.3779   -3.7754   22.6013 C   0  0  0  0  0  0  0  0  0  0  0  0
    8.0995   -5.0154   23.2876 C   0  0  0  0  0  0  0  0  0  0  0  0
    9.0464   -5.6410   23.8327 O   0  0  0  0  0  0  0  0  0  0  0  0
    6.6861   -5.5396   23.4121 C   0  0  1  0  0  0  0  0  0  0  0  0
    5.6614   -4.9632   22.4332 C   0  0  2  0  0  0  0  0  0  0  0  0
    4.4305   -5.7681   22.8670 C   0  0  0  0  0  0  0  0  0  0  0  0
    5.0188   -7.1230   22.9576 N   0  0  0  0  0  0  0  0  0  0  0  0
    6.3954   -6.7848   22.5693 C   0  0  1  0  0  0  0  0  0  0  0  0
    6.1868   -5.8931   21.3487 C   0  0  0  0  0  0  0  0  0  0  0  0
  1  2  3  0
  2  3  1  0
  3  4  2  0
  5  3  1  6
  5  6  1  0
  6  7  1  1
  7  8  1  0
  8  9  1  0
  9 10  1  6
  9  5  1  0
 10  6  1  0
M  END
>  <Hit>  (97) 
Mpro-x0991_0

>  <Receptor>  (97) 
Mpro-x1249_0

>  <SCORE>  (97) 
-0.59116000000000002

>  <SCORE.norm>  (97) 
-0.059116000000000002

>  <SCORE.heavy>  (97) 
10

>  <OrigSmiles>  (97) 
C#CC(=O)C1C2CNC1C2

>  <SuCOS_Score>  (97) 
0.24210150256102891

>  <Max_SuCOS_Score>  (97) 
0.24210150256102891

>  <Cum_SuCOS_Score>  (97) 
0.90744604003473617

>  <TransFSScore_50nM>  (97) 
0.013712999999999999

>  <TransFSScore_1uM>  (97) 
0.170406

>  <TransFSScore_10nM>  (97) 
0.0028860000000000001

>  <TransFSScore_200nM>  (97) 
0.266851

>  <TransFSScore>  (97) 
0.11346400000000001

>  <FeatureSteinScore>  (97) 
0.30268802426611574

$$$$
C#CC(=O)C1CC2CCC1N2
     RDKit          3D

 11 12  0  0  0  0  0  0  0  0999 V2000
    9.1887   -1.9288   22.0653 C   0  0  0  0  0  0  0  0  0  0  0  0
    8.8035   -2.8701   22.7121 C   0  0  0  0  0  0  0  0  0  0  0  0
    8.3450   -3.9987   23.4859 C   0  0  0  0  0  0  0  0  0  0  0  0
    7.2597   -4.5553   23.1708 O   0  0  0  0  0  0  0  0  0  0  0  0
    9.1678   -4.4839   24.6576 C   0  0  2  0  0  0  0  0  0  0  0  0
    9.2284   -6.0161   24.8546 C   0  0  0  0  0  0  0  0  0  0  0  0
    8.7857   -6.1500   26.3262 C   0  0  2  0  0  0  0  0  0  0  0  0
    7.2611   -5.9435   26.3875 C   0  0  0  0  0  0  0  0  0  0  0  0
    7.1541   -4.4248   26.1992 C   0  0  0  0  0  0  0  0  0  0  0  0
    8.6395   -4.0298   26.0415 C   0  0  1  0  0  0  0  0  0  0  0  0
    9.3105   -4.9451   26.9515 N   0  0  0  0  0  0  0  0  0  0  0  0
  1  2  3  0
  2  3  1  0
  3  4  2  0
  5  3  1  6
  5  6  1  0
  7  6  1  6
  7  8  1  0
  8  9  1  0
 10  9  1  6
 10 11  1  0
 10  5  1  0
 11  7  1  0
M  END
>  <Hit>  (98) 
Mpro-x0991_0

>  <Receptor>  (98) 
Mpro-x1249_0

>  <SCORE>  (98) 
-0.35994900000000002

>  <SCORE.norm>  (98) 
-0.032722599999999998

>  <SCORE.heavy>  (98) 
11

>  <OrigSmiles>  (98) 
C#CC(=O)C1CC2CCC1N2

>  <SuCOS_Score>  (98) 
0.54648859242626557

>  <Max_SuCOS_Score>  (98) 
0.54648859242626557

>  <Cum_SuCOS_Score>  (98) 
2.1345729189635709

>  <TransFSScore_50nM>  (98) 
0.017270000000000001

>  <TransFSScore_1uM>  (98) 
0.24391099999999999

>  <TransFSScore_10nM>  (98) 
0.0066819999999999996

>  <TransFSScore_200nM>  (98) 
0.18213299999999999

>  <TransFSScore>  (98) 
0.112499

>  <FeatureSteinScore>  (98) 
0.71316679004615913

$$$$
C#CC(=O)CC12CCC(CC1)N2
     RDKit          3D

 12 13  0  0  0  0  0  0  0  0999 V2000
   10.4466   -4.8508   25.2633 C   0  0  0  0  0  0  0  0  0  0  0  0
    9.5755   -4.4334   24.5423 C   0  0  0  0  0  0  0  0  0  0  0  0
    8.5350   -3.9353   23.6802 C   0  0  0  0  0  0  0  0  0  0  0  0
    7.3300   -4.1633   23.9663 O   0  0  0  0  0  0  0  0  0  0  0  0
    8.9371   -3.1485   22.4601 C   0  0  0  0  0  0  0  0  0  0  0  0
    9.9640   -2.0209   22.7176 C   0  0  2  0  0  0  0  0  0  0  0  0
   11.3811   -2.5099   23.1029 C   0  0  0  0  0  0  0  0  0  0  0  0
   12.2370   -1.3008   22.6995 C   0  0  0  0  0  0  0  0  0  0  0  0
   11.1679   -0.3362   22.1528 C   0  0  2  0  0  0  0  0  0  0  0  0
   10.3821    0.2410   23.3452 C   0  0  0  0  0  0  0  0  0  0  0  0
    9.5162   -0.9601   23.7518 C   0  0  0  0  0  0  0  0  0  0  0  0
   10.2083   -1.2258   21.5203 N   0  0  0  0  0  0  0  0  0  0  0  0
  1  2  3  0
  2  3  1  0
  3  4  2  0
  3  5  1  0
  6  5  1  6
  6  7  1  0
  7  8  1  0
  9  8  1  1
  9 10  1  0
  9 12  1  0
 10 11  1  0
 11  6  1  0
 12  6  1  0
M  END
>  <Hit>  (99) 
Mpro-x0991_0

>  <Receptor>  (99) 
Mpro-x0305_0

>  <SCORE>  (99) 
-6.0742200000000004

>  <SCORE.norm>  (99) 
-0.506185

>  <SCORE.heavy>  (99) 
12

>  <OrigSmiles>  (99) 
C#CC(=O)CC12CCC(CC1)N2

>  <SuCOS_Score>  (99) 
0.3379449383842536

>  <Max_SuCOS_Score>  (99) 
0.3379449383842536

>  <Cum_SuCOS_Score>  (99) 
3.5702481715129286

>  <TransFSScore_50nM>  (99) 
0.010008

>  <TransFSScore_1uM>  (99) 
0.28580699999999998

>  <TransFSScore_10nM>  (99) 
0.049750999999999997

>  <TransFSScore_200nM>  (99) 
0.295738

>  <TransFSScore>  (99) 
0.160326

>  <FeatureSteinScore>  (99) 
0.47398659501112217

$$$$
C#CC(=O)N(Cc1ccccc1)CC1CCC1
     RDKit          3D

 17 18  0  0  0  0  0  0  0  0999 V2000
    7.9219    3.5756   21.7392 C   0  0  0  0  0  0  0  0  0  0  0  0
    8.0285    2.3761   21.6882 C   0  0  0  0  0  0  0  0  0  0  0  0
    8.1577    0.9416   21.6254 C   0  0  0  0  0  0  0  0  0  0  0  0
    7.6050    0.2475   22.5217 O   0  0  0  0  0  0  0  0  0  0  0  0
    8.9226    0.3184   20.5622 N   0  0  0  0  0  0  0  0  0  0  0  0
    9.8172   -0.7370   21.1013 C   0  0  0  0  0  0  0  0  0  0  0  0
   11.0234   -0.1789   21.8260 C   0  0  0  0  0  0  0  0  0  0  0  0
   12.3166   -0.5855   21.4587 C   0  0  0  0  0  0  0  0  0  0  0  0
   13.4311   -0.0972   22.1424 C   0  0  0  0  0  0  0  0  0  0  0  0
   13.2646    0.7847   23.2115 C   0  0  0  0  0  0  0  0  0  0  0  0
   11.9822    1.1740   23.6029 C   0  0  0  0  0  0  0  0  0  0  0  0
   10.8644    0.6866   22.9223 C   0  0  0  0  0  0  0  0  0  0  0  0
    8.0362   -0.1286   19.4571 C   0  0  0  0  0  0  0  0  0  0  0  0
    7.0645    0.9583   18.9158 C   0  0  0  0  0  0  0  0  0  0  0  0
    6.3358    0.5387   17.6367 C   0  0  0  0  0  0  0  0  0  0  0  0
    4.9993    0.6580   18.3517 C   0  0  0  0  0  0  0  0  0  0  0  0
    5.7172    1.0370   19.6375 C   0  0  0  0  0  0  0  0  0  0  0  0
  1  2  3  0
  2  3  1  0
  3  4  2  0
  3  5  1  0
  5  6  1  0
  5 13  1  0
  6  7  1  0
  7  8  2  0
  8  9  1  0
  9 10  2  0
 10 11  1  0
 11 12  2  0
 12  7  1  0
 13 14  1  0
 14 15  1  0
 15 16  1  0
 16 17  1  0
 17 14  1  0
M  END
>  <Hit>  (100) 
Mpro-x0072_0

>  <Receptor>  (100) 
Mpro-x1249_0

>  <SCORE>  (100) 
-11.8089

>  <SCORE.norm>  (100) 
-0.69464199999999998

>  <SCORE.heavy>  (100) 
17

>  <OrigSmiles>  (100) 
C#CC(=O)N(Cc1ccccc1)CC1CCC1

>  <SuCOS_Score>  (100) 
0.23811214205259862

>  <Max_SuCOS_Score>  (100) 
0.43486596821515811

>  <Cum_SuCOS_Score>  (100) 
4.8771062806085537

>  <TransFSScore_50nM>  (100) 
0.027774

>  <TransFSScore_1uM>  (100) 
0.69724900000000001

>  <TransFSScore_10nM>  (100) 
0.040960000000000003

>  <TransFSScore_200nM>  (100) 
0.274395

>  <TransFSScore>  (100) 
0.26009450000000001

>  <FeatureSteinScore>  (100) 
0.22321330424121136

$$$$
C#CC(=O)N1C2CCC1CC2
     RDKit          3D

 11 12  0  0  0  0  0  0  0  0999 V2000
    8.6640   -2.6284   22.2378 C   0  0  0  0  0  0  0  0  0  0  0  0
    8.1837   -3.5138   22.8996 C   0  0  0  0  0  0  0  0  0  0  0  0
    7.6105   -4.5739   23.6943 C   0  0  0  0  0  0  0  0  0  0  0  0
    6.7049   -5.2934   23.1966 O   0  0  0  0  0  0  0  0  0  0  0  0
    8.0459   -4.7952   25.0451 N   0  0  0  0  0  0  0  0  0  0  0  0
    7.2287   -4.6185   26.2284 C   0  0  2  0  0  0  0  0  0  0  0  0
    7.3681   -3.1142   26.5163 C   0  0  0  0  0  0  0  0  0  0  0  0
    8.8184   -2.8512   26.0805 C   0  0  0  0  0  0  0  0  0  0  0  0
    9.2592   -4.2503   25.6174 C   0  0  1  0  0  0  0  0  0  0  0  0
    9.4656   -5.1360   26.8547 C   0  0  0  0  0  0  0  0  0  0  0  0
    8.0167   -5.3984   27.2909 C   0  0  0  0  0  0  0  0  0  0  0  0
  1  2  3  0
  2  3  1  0
  3  4  2  0
  3  5  1  0
  5  6  1  0
  6  7  1  1
  7  8  1  0
  9  8  1  1
  9 10  1  0
  9  5  1  0
 10 11  1  0
 11  6  1  0
M  END
>  <Hit>  (101) 
Mpro-x0991_0

>  <Receptor>  (101) 
Mpro-x1249_0

>  <SCORE>  (101) 
-1.3032600000000001

>  <SCORE.norm>  (101) 
-0.118478

>  <SCORE.heavy>  (101) 
11

>  <OrigSmiles>  (101) 
C#CC(=O)N1C2CCC1CC2

>  <SuCOS_Score>  (101) 
0.4382699041135919

>  <Max_SuCOS_Score>  (101) 
0.4382699041135919

>  <Cum_SuCOS_Score>  (101) 
1.8127614476019018

>  <TransFSScore_50nM>  (101) 
0.011155999999999999

>  <TransFSScore_1uM>  (101) 
0.10169

>  <TransFSScore_10nM>  (101) 
0.0063330000000000001

>  <TransFSScore_200nM>  (101) 
0.041235000000000001

>  <TransFSScore>  (101) 
0.0401035

>  <FeatureSteinScore>  (101) 
0.55805566477550073

$$$$
C#CC(=O)N1C2CCC1CNC2
     RDKit          3D

 12 13  0  0  0  0  0  0  0  0999 V2000
    9.9504   -2.5257   22.7126 C   0  0  0  0  0  0  0  0  0  0  0  0
    9.5081   -3.3803   23.4384 C   0  0  0  0  0  0  0  0  0  0  0  0
    8.9787   -4.4023   24.3106 C   0  0  0  0  0  0  0  0  0  0  0  0
    9.1749   -5.6124   24.0223 O   0  0  0  0  0  0  0  0  0  0  0  0
    8.2262   -4.0529   25.4850 N   0  0  0  0  0  0  0  0  0  0  0  0
    6.7894   -4.1740   25.6037 C   0  0  2  0  0  0  0  0  0  0  0  0
    6.4532   -3.2420   26.7752 C   0  0  0  0  0  0  0  0  0  0  0  0
    7.7478   -3.1931   27.6064 C   0  0  0  0  0  0  0  0  0  0  0  0
    8.7230   -4.1001   26.8442 C   0  0  1  0  0  0  0  0  0  0  0  0
    8.5935   -5.5695   27.3152 C   0  0  0  0  0  0  0  0  0  0  0  0
    7.1984   -6.0669   27.2092 N   0  0  0  0  0  0  0  0  0  0  0  0
    6.4954   -5.6498   25.9694 C   0  0  0  0  0  0  0  0  0  0  0  0
  1  2  3  0
  2  3  1  0
  3  4  2  0
  3  5  1  0
  5  6  1  0
  6  7  1  1
  7  8  1  0
  9  8  1  1
  9 10  1  0
  9  5  1  0
 10 11  1  0
 11 12  1  0
 12  6  1  0
M  END
>  <Hit>  (102) 
Mpro-x0991_0

>  <Receptor>  (102) 
Mpro-x0305_0

>  <SCORE>  (102) 
-0.53093199999999996

>  <SCORE.norm>  (102) 
-0.044244400000000003

>  <SCORE.heavy>  (102) 
12

>  <OrigSmiles>  (102) 
C#CC(=O)N1C2CCC1CNC2

>  <SuCOS_Score>  (102) 
0.41702289173323936

>  <Max_SuCOS_Score>  (102) 
0.41702289173323936

>  <Cum_SuCOS_Score>  (102) 
1.9766531552484297

>  <TransFSScore_50nM>  (102) 
0.10514999999999999

>  <TransFSScore_1uM>  (102) 
0.147787

>  <TransFSScore_10nM>  (102) 
0.020788999999999998

>  <TransFSScore_200nM>  (102) 
0.17685699999999999

>  <TransFSScore>  (102) 
0.11264574999999999

>  <FeatureSteinScore>  (102) 
0.21676906520136074

$$$$
C#CC(=O)N1[C@H]2CC[C@@H]1CNC2
     RDKit          3D

 12 13  0  0  0  0  0  0  0  0999 V2000
    7.9114   -2.9166   22.0550 C   0  0  0  0  0  0  0  0  0  0  0  0
    7.5594   -3.6391   22.9535 C   0  0  0  0  0  0  0  0  0  0  0  0
    7.1363   -4.5061   24.0357 C   0  0  0  0  0  0  0  0  0  0  0  0
    6.5485   -5.5787   23.7309 O   0  0  0  0  0  0  0  0  0  0  0  0
    7.3124   -4.1652   25.4406 N   0  0  0  0  0  0  0  0  0  0  0  0
    8.1649   -5.1456   26.1288 C   0  0  1  0  0  0  0  0  0  0  0  0
    9.6028   -4.7912   25.7191 C   0  0  0  0  0  0  0  0  0  0  0  0
    9.5508   -3.2897   25.4755 C   0  0  0  0  0  0  0  0  0  0  0  0
    8.0702   -2.9284   25.7034 C   0  0  2  0  0  0  0  0  0  0  0  0
    7.8508   -2.5145   27.1889 C   0  0  0  0  0  0  0  0  0  0  0  0
    7.4886   -3.6463   28.0746 N   0  0  0  0  0  0  0  0  0  0  0  0
    7.9930   -4.9796   27.6696 C   0  0  0  0  0  0  0  0  0  0  0  0
  1  2  3  0
  2  3  1  0
  3  4  2  0
  3  5  1  0
  5  6  1  0
  6  7  1  1
  7  8  1  0
  9  8  1  1
  9 10  1  0
  9  5  1  0
 10 11  1  0
 11 12  1  0
 12  6  1  0
M  END
>  <Hit>  (103) 
Mpro-x0991_0

>  <Receptor>  (103) 
Mpro-x0305_0

>  <SCORE>  (103) 
-0.13761499999999999

>  <SCORE.norm>  (103) 
-0.0114679

>  <SCORE.heavy>  (103) 
12

>  <OrigSmiles>  (103) 
C#CC(=O)N1[C@H]2CC[C@@H]1CNC2

>  <SuCOS_Score>  (103) 
0.41815455365130644

>  <Max_SuCOS_Score>  (103) 
0.41815455365130644

>  <Cum_SuCOS_Score>  (103) 
1.7017938753397843

>  <TransFSScore_50nM>  (103) 
0.025182

>  <TransFSScore_1uM>  (103) 
0.538856

>  <TransFSScore_10nM>  (103) 
0.0079649999999999999

>  <TransFSScore_200nM>  (103) 
0.021211000000000001

>  <TransFSScore>  (103) 
0.1483035

>  <FeatureSteinScore>  (103) 
0.26611756050033053

$$$$
C#CC(=O)Nc1ccc(Cl)cc1Br
     RDKit          3D

 13 13  0  0  0  0  0  0  0  0999 V2000
   13.8367    4.6719   23.2698 C   0  0  0  0  0  0  0  0  0  0  0  0
   13.0106    3.8216   23.0521 C   0  0  0  0  0  0  0  0  0  0  0  0
   12.0260    2.8076   22.7913 C   0  0  0  0  0  0  0  0  0  0  0  0
   10.8182    3.1421   22.6628 O   0  0  0  0  0  0  0  0  0  0  0  0
   12.4310    1.4389   22.6428 N   0  0  0  0  0  0  0  0  0  0  0  0
   11.5043    0.3440   22.5342 C   0  0  0  0  0  0  0  0  0  0  0  0
   10.1306    0.5548   22.7442 C   0  0  0  0  0  0  0  0  0  0  0  0
    9.2286   -0.5085   22.6704 C   0  0  0  0  0  0  0  0  0  0  0  0
    9.6928   -1.7989   22.3978 C   0  0  0  0  0  0  0  0  0  0  0  0
    8.5616   -3.1367   22.3099 Cl  0  0  0  0  0  0  0  0  0  0  0  0
   11.0601   -2.0242   22.1939 C   0  0  0  0  0  0  0  0  0  0  0  0
   11.9683   -0.9576   22.2620 C   0  0  0  0  0  0  0  0  0  0  0  0
   13.8353   -1.2812   21.9263 Br  0  0  0  0  0  0  0  0  0  0  0  0
  1  2  3  0
  2  3  1  0
  3  4  2  0
  3  5  1  0
  5  6  1  0
  6  7  2  0
  7  8  1  0
  8  9  2  0
  9 10  1  0
  9 11  1  0
 11 12  2  0
 12 13  1  0
 12  6  1  0
M  END
>  <Hit>  (104) 
Mpro-x0946_0

>  <Receptor>  (104) 
Mpro-x0305_0

>  <SCORE>  (104) 
-10.0702

>  <SCORE.norm>  (104) 
-0.77462799999999998

>  <SCORE.heavy>  (104) 
13

>  <OrigSmiles>  (104) 
C#CC(=O)Nc1ccc(Cl)cc1Br

>  <SuCOS_Score>  (104) 
0.25981999631284403

>  <Max_SuCOS_Score>  (104) 
0.33252826218936482

>  <Cum_SuCOS_Score>  (104) 
4.1109369459428251

>  <TransFSScore_50nM>  (104) 
0.0071570000000000002

>  <TransFSScore_1uM>  (104) 
0.012107

>  <TransFSScore_10nM>  (104) 
0.022279

>  <TransFSScore_200nM>  (104) 
0.0085079999999999999

>  <TransFSScore>  (104) 
0.01251275

>  <FeatureSteinScore>  (104) 
0.45533707520807909

$$$$
C#CC(=O)[C@@H]1C[C@@H]2CC[C@H]1N2
     RDKit          3D

 11 12  0  0  0  0  0  0  0  0999 V2000
    9.7781   -2.4611   22.2628 C   0  0  0  0  0  0  0  0  0  0  0  0
    9.1998   -3.2771   22.9357 C   0  0  0  0  0  0  0  0  0  0  0  0
    8.5088   -4.2560   23.7439 C   0  0  0  0  0  0  0  0  0  0  0  0
    7.7754   -5.1003   23.1653 O   0  0  0  0  0  0  0  0  0  0  0  0
    8.6205   -4.2970   25.2537 C   0  0  2  0  0  0  0  0  0  0  0  0
    7.9052   -5.4530   25.9854 C   0  0  0  0  0  0  0  0  0  0  0  0
    7.0533   -4.6789   27.0111 C   0  0  2  0  0  0  0  0  0  0  0  0
    5.8539   -4.0596   26.2812 C   0  0  0  0  0  0  0  0  0  0  0  0
    6.5229   -2.8968   25.5388 C   0  0  0  0  0  0  0  0  0  0  0  0
    7.9934   -3.0713   25.9619 C   0  0  1  0  0  0  0  0  0  0  0  0
    7.8532   -3.5108   27.3390 N   0  0  0  0  0  0  0  0  0  0  0  0
  1  2  3  0
  2  3  1  0
  3  4  2  0
  5  3  1  6
  5  6  1  0
  7  6  1  6
  7  8  1  0
  8  9  1  0
 10  9  1  6
 10 11  1  0
 10  5  1  0
 11  7  1  0
M  END
>  <Hit>  (105) 
Mpro-x0991_0

>  <Receptor>  (105) 
Mpro-x1249_0

>  <SCORE>  (105) 
-0.62827599999999995

>  <SCORE.norm>  (105) 
-0.057116

>  <SCORE.heavy>  (105) 
11

>  <OrigSmiles>  (105) 
C#CC(=O)[C@@H]1C[C@@H]2CC[C@H]1N2

>  <SuCOS_Score>  (105) 
0.41110959209514614

>  <Max_SuCOS_Score>  (105) 
0.41110959209514614

>  <Cum_SuCOS_Score>  (105) 
1.822615858121629

>  <TransFSScore_50nM>  (105) 
0.013494000000000001

>  <TransFSScore_1uM>  (105) 
0.241289

>  <TransFSScore_10nM>  (105) 
0.0076369999999999997

>  <TransFSScore_200nM>  (105) 
0.042775000000000001

>  <TransFSScore>  (105) 
0.076298749999999999

>  <FeatureSteinScore>  (105) 
0.46029292020594098

$$$$
C#CC(=O)[C@H]1[C@@H]2C[C@H]1CN2
     RDKit          3D

 10 11  0  0  0  0  0  0  0  0999 V2000
    8.5905   -2.7250   22.5710 C   0  0  0  0  0  0  0  0  0  0  0  0
    8.3122   -3.6377   23.3075 C   0  0  0  0  0  0  0  0  0  0  0  0
    7.9815   -4.7294   24.1919 C   0  0  0  0  0  0  0  0  0  0  0  0
    8.5223   -5.8527   24.0150 O   0  0  0  0  0  0  0  0  0  0  0  0
    7.0823   -4.5021   25.3862 C   0  0  1  0  0  0  0  0  0  0  0  0
    7.2898   -5.3699   26.6354 C   0  0  2  0  0  0  0  0  0  0  0  0
    6.7214   -4.2164   27.4585 C   0  0  0  0  0  0  0  0  0  0  0  0
    7.4667   -3.4172   26.3951 C   0  0  1  0  0  0  0  0  0  0  0  0
    8.9013   -3.8218   26.7656 C   0  0  0  0  0  0  0  0  0  0  0  0
    8.7308   -5.2807   26.9272 N   0  0  0  0  0  0  0  0  0  0  0  0
  1  2  3  0
  2  3  1  0
  3  4  2  0
  5  3  1  6
  5  6  1  0
  6  7  1  1
  8  7  1  1
  8  9  1  0
  8  5  1  0
  9 10  1  0
 10  6  1  0
M  END
>  <Hit>  (106) 
Mpro-x0991_0

>  <Receptor>  (106) 
Mpro-x1249_0

>  <SCORE>  (106) 
-0.42696299999999998

>  <SCORE.norm>  (106) 
-0.0426963

>  <SCORE.heavy>  (106) 
10

>  <OrigSmiles>  (106) 
C#CC(=O)[C@H]1[C@@H]2C[C@H]1CN2

>  <SuCOS_Score>  (106) 
0.54723340938752818

>  <Max_SuCOS_Score>  (106) 
0.54723340938752818

>  <Cum_SuCOS_Score>  (106) 
1.7375737321861975

>  <TransFSScore_50nM>  (106) 
0.020791

>  <TransFSScore_1uM>  (106) 
0.30399900000000002

>  <TransFSScore_10nM>  (106) 
0.018596000000000001

>  <TransFSScore_200nM>  (106) 
0.20438799999999999

>  <TransFSScore>  (106) 
0.1369435

>  <FeatureSteinScore>  (106) 
0.66334041216362694

$$$$
C#CC(=O)c1cc(Cl)cc(Br)c1
     RDKit          3D

 12 12  0  0  0  0  0  0  0  0999 V2000
   13.0651    4.7161   24.2227 C   0  0  0  0  0  0  0  0  0  0  0  0
   11.9931    4.4720   23.7279 C   0  0  0  0  0  0  0  0  0  0  0  0
   10.7119    4.1795   23.1370 C   0  0  0  0  0  0  0  0  0  0  0  0
    9.8906    5.1252   22.9998 O   0  0  0  0  0  0  0  0  0  0  0  0
   10.3510    2.8065   22.6959 C   0  0  0  0  0  0  0  0  0  0  0  0
    9.1173    2.5739   22.0592 C   0  0  0  0  0  0  0  0  0  0  0  0
    8.7678    1.2835   21.6442 C   0  0  0  0  0  0  0  0  0  0  0  0
    7.2259    1.0050   20.8552 Cl  0  0  0  0  0  0  0  0  0  0  0  0
    9.6469    0.2146   21.8530 C   0  0  0  0  0  0  0  0  0  0  0  0
   10.8788    0.4352   22.4778 C   0  0  0  0  0  0  0  0  0  0  0  0
   12.1138   -1.0101   22.7384 Br  0  0  0  0  0  0  0  0  0  0  0  0
   11.2265    1.7214   22.9017 C   0  0  0  0  0  0  0  0  0  0  0  0
  1  2  3  0
  2  3  1  0
  3  4  2  0
  3  5  1  0
  5  6  2  0
  6  7  1  0
  7  8  1  0
  7  9  2  0
  9 10  1  0
 10 11  1  0
 10 12  2  0
 12  5  1  0
M  END
>  <Hit>  (107) 
Mpro-x0946_0

>  <Receptor>  (107) 
Mpro-x0387_0

>  <SCORE>  (107) 
-5.3531399999999998

>  <SCORE.norm>  (107) 
-0.44609500000000002

>  <SCORE.heavy>  (107) 
12

>  <OrigSmiles>  (107) 
C#CC(=O)c1cc(Cl)cc(Br)c1

>  <SuCOS_Score>  (107) 
0.29869149185156357

>  <Max_SuCOS_Score>  (107) 
0.29869149185156357

>  <Cum_SuCOS_Score>  (107) 
3.3776188761720141

>  <TransFSScore_50nM>  (107) 
0.061114000000000002

>  <TransFSScore_1uM>  (107) 
0.039322999999999997

>  <TransFSScore_10nM>  (107) 
0.0095960000000000004

>  <TransFSScore_200nM>  (107) 
0.074746999999999994

>  <TransFSScore>  (107) 
0.046195

>  <FeatureSteinScore>  (107) 
0.20099873888398681

$$$$
C#CC(C)(C)C(=O)N1C2CCC1CC2
     RDKit          3D

 14 15  0  0  0  0  0  0  0  0999 V2000
   11.2140   -2.2338   23.0880 C   0  0  0  0  0  0  0  0  0  0  0  0
   10.3729   -2.9155   23.6198 C   0  0  0  0  0  0  0  0  0  0  0  0
    9.3398   -3.7501   24.2763 C   0  0  0  0  0  0  0  0  0  0  0  0
   10.0333   -4.8715   25.0673 C   0  0  0  0  0  0  0  0  0  0  0  0
    8.5556   -2.8442   25.2440 C   0  0  0  0  0  0  0  0  0  0  0  0
    8.3817   -4.3703   23.2569 C   0  0  0  0  0  0  0  0  0  0  0  0
    8.5084   -4.0541   22.0804 O   0  0  0  0  0  0  0  0  0  0  0  0
    7.3785   -5.3609   23.6447 N   0  0  0  0  0  0  0  0  0  0  0  0
    6.2765   -4.8371   24.4548 C   0  0  1  0  0  0  0  0  0  0  0  0
    5.5017   -3.8992   23.5038 C   0  0  0  0  0  0  0  0  0  0  0  0
    5.6314   -4.6415   22.1700 C   0  0  0  0  0  0  0  0  0  0  0  0
    6.5002   -5.8567   22.5786 C   0  0  2  0  0  0  0  0  0  0  0  0
    5.5740   -6.8286   23.3407 C   0  0  0  0  0  0  0  0  0  0  0  0
    5.4025   -6.0902   24.6814 C   0  0  0  0  0  0  0  0  0  0  0  0
  1  2  3  0
  2  3  1  0
  3  4  1  0
  3  5  1  0
  3  6  1  0
  6  7  2  0
  6  8  1  0
  8  9  1  0
  9 10  1  6
 10 11  1  0
 12 11  1  1
 12 13  1  0
 12  8  1  0
 13 14  1  0
 14  9  1  0
M  END
>  <Hit>  (108) 
Mpro-x0991_0

>  <Receptor>  (108) 
Mpro-x0874_0

>  <SCORE>  (108) 
-3.6072000000000002

>  <SCORE.norm>  (108) 
-0.25765700000000002

>  <SCORE.heavy>  (108) 
14

>  <OrigSmiles>  (108) 
C#CC(C)(C)C(=O)N1C2CCC1CC2

>  <SuCOS_Score>  (108) 
0.36536313965128386

>  <Max_SuCOS_Score>  (108) 
0.36536313965128386

>  <Cum_SuCOS_Score>  (108) 
2.1893209936677369

>  <TransFSScore_50nM>  (108) 
0.0039579999999999997

>  <TransFSScore_1uM>  (108) 
0.100976

>  <TransFSScore_10nM>  (108) 
0.0046569999999999997

>  <TransFSScore_200nM>  (108) 
0.017715000000000002

>  <TransFSScore>  (108) 
0.031826500000000001

>  <FeatureSteinScore>  (108) 
0.31902669791172517

$$$$
C#CC(C)(C)C(=O)N1C2CCC1CNC2
     RDKit          3D

 15 16  0  0  0  0  0  0  0  0999 V2000
    7.7848   -5.1931   21.8589 C   0  0  0  0  0  0  0  0  0  0  0  0
    8.2508   -4.4531   22.6895 C   0  0  0  0  0  0  0  0  0  0  0  0
    8.8224   -3.5415   23.7016 C   0  0  0  0  0  0  0  0  0  0  0  0
    9.9912   -2.7631   23.0778 C   0  0  0  0  0  0  0  0  0  0  0  0
    9.3434   -4.4012   24.8671 C   0  0  0  0  0  0  0  0  0  0  0  0
    7.7723   -2.5655   24.2104 C   0  0  0  0  0  0  0  0  0  0  0  0
    6.5559   -2.7902   23.9588 O   0  0  0  0  0  0  0  0  0  0  0  0
    8.1239   -1.3996   24.9814 N   0  0  0  0  0  0  0  0  0  0  0  0
    7.7886   -1.2431   26.3885 C   0  0  2  0  0  0  0  0  0  0  0  0
    6.5557   -0.3302   26.3553 C   0  0  0  0  0  0  0  0  0  0  0  0
    6.7226    0.4801   25.0650 C   0  0  0  0  0  0  0  0  0  0  0  0
    8.0288   -0.0474   24.4547 C   0  0  1  0  0  0  0  0  0  0  0  0
    9.2546    0.7542   24.9816 C   0  0  0  0  0  0  0  0  0  0  0  0
    9.9216    0.0785   26.1200 N   0  0  0  0  0  0  0  0  0  0  0  0
    8.9840   -0.5338   27.0904 C   0  0  0  0  0  0  0  0  0  0  0  0
  1  2  3  0
  2  3  1  0
  3  4  1  0
  3  5  1  0
  3  6  1  0
  6  7  2  0
  6  8  1  0
  8  9  1  0
  9 10  1  6
 10 11  1  0
 12 11  1  1
 12 13  1  0
 12  8  1  0
 13 14  1  0
 14 15  1  0
 15  9  1  0
M  END
>  <Hit>  (109) 
Mpro-x0991_0

>  <Receptor>  (109) 
Mpro-x0874_0

>  <SCORE>  (109) 
-3.79555

>  <SCORE.norm>  (109) 
-0.25303700000000001

>  <SCORE.heavy>  (109) 
15

>  <OrigSmiles>  (109) 
C#CC(C)(C)C(=O)N1C2CCC1CNC2

>  <SuCOS_Score>  (109) 
0.33395368947186233

>  <Max_SuCOS_Score>  (109) 
0.33395368947186233

>  <Cum_SuCOS_Score>  (109) 
2.5056026097839692

>  <TransFSScore_50nM>  (109) 
0.111263

>  <TransFSScore_1uM>  (109) 
0.54864999999999997

>  <TransFSScore_10nM>  (109) 
0.011783999999999999

>  <TransFSScore_200nM>  (109) 
0.040436

>  <TransFSScore>  (109) 
0.17803325

>  <FeatureSteinScore>  (109) 
0.45377047164680367

$$$$
C#CC(C)(C)C(=O)N1[C@H]2CC[C@@H]1CNC2
     RDKit          3D

 15 16  0  0  0  0  0  0  0  0999 V2000
   10.3487   -5.5457   26.0399 C   0  0  0  0  0  0  0  0  0  0  0  0
    9.9264   -4.6010   25.4201 C   0  0  0  0  0  0  0  0  0  0  0  0
    9.4117   -3.4455   24.6554 C   0  0  0  0  0  0  0  0  0  0  0  0
   10.5931   -2.8104   23.8910 C   0  0  0  0  0  0  0  0  0  0  0  0
    8.8395   -2.3949   25.6255 C   0  0  0  0  0  0  0  0  0  0  0  0
    8.3248   -3.9136   23.6934 C   0  0  0  0  0  0  0  0  0  0  0  0
    8.4545   -3.6934   22.4569 O   0  0  0  0  0  0  0  0  0  0  0  0
    7.1191   -4.5584   24.1584 N   0  0  0  0  0  0  0  0  0  0  0  0
    6.7148   -5.9262   23.8866 C   0  0  1  0  0  0  0  0  0  0  0  0
    5.6652   -6.2048   24.9715 C   0  0  0  0  0  0  0  0  0  0  0  0
    5.1090   -4.8156   25.3289 C   0  0  0  0  0  0  0  0  0  0  0  0
    5.8765   -3.8547   24.4118 C   0  0  2  0  0  0  0  0  0  0  0  0
    5.1493   -3.7074   23.0520 C   0  0  0  0  0  0  0  0  0  0  0  0
    4.8884   -5.0290   22.4395 N   0  0  0  0  0  0  0  0  0  0  0  0
    6.0609   -5.9305   22.4839 C   0  0  0  0  0  0  0  0  0  0  0  0
  1  2  3  0
  2  3  1  0
  3  4  1  0
  3  5  1  0
  3  6  1  0
  6  7  2  0
  6  8  1  0
  8  9  1  0
  9 10  1  1
 10 11  1  0
 12 11  1  1
 12 13  1  0
 12  8  1  0
 13 14  1  0
 14 15  1  0
 15  9  1  0
M  END
>  <Hit>  (110) 
Mpro-x0991_0

>  <Receptor>  (110) 
Mpro-x0874_0

>  <SCORE>  (110) 
-3.68201

>  <SCORE.norm>  (110) 
-0.24546699999999999

>  <SCORE.heavy>  (110) 
15

>  <OrigSmiles>  (110) 
C#CC(C)(C)C(=O)N1[C@H]2CC[C@@H]1CNC2

>  <SuCOS_Score>  (110) 
0.38392098903339555

>  <Max_SuCOS_Score>  (110) 
0.38392098903339555

>  <Cum_SuCOS_Score>  (110) 
1.9513856111295167

>  <TransFSScore_50nM>  (110) 
0.14303199999999999

>  <TransFSScore_1uM>  (110) 
0.178837

>  <TransFSScore_10nM>  (110) 
0.010574999999999999

>  <TransFSScore_200nM>  (110) 
0.36513600000000002

>  <TransFSScore>  (110) 
0.17439499999999999

>  <FeatureSteinScore>  (110) 
0.41792024529007493

$$$$
C#CC(C)(C)C(=O)Nc1cc(Cl)cc(Br)c1
     RDKit          3D

 16 16  0  0  0  0  0  0  0  0999 V2000
   13.9908    5.6073   21.9247 C   0  0  0  0  0  0  0  0  0  0  0  0
   13.0571    5.4336   22.6682 C   0  0  0  0  0  0  0  0  0  0  0  0
   11.9136    5.2198   23.5790 C   0  0  0  0  0  0  0  0  0  0  0  0
   10.6473    5.8080   22.9390 C   0  0  0  0  0  0  0  0  0  0  0  0
   12.2138    5.9433   24.9048 C   0  0  0  0  0  0  0  0  0  0  0  0
   11.7104    3.7354   23.8096 C   0  0  0  0  0  0  0  0  0  0  0  0
   10.9468    3.3414   24.7346 O   0  0  0  0  0  0  0  0  0  0  0  0
   12.4922    2.7839   23.0727 N   0  0  0  0  0  0  0  0  0  0  0  0
   12.2640    1.3695   22.9955 C   0  0  0  0  0  0  0  0  0  0  0  0
   11.2799    0.7310   23.7719 C   0  0  0  0  0  0  0  0  0  0  0  0
   11.0765   -0.6489   23.6472 C   0  0  0  0  0  0  0  0  0  0  0  0
    9.8504   -1.4443   24.6174 Cl  0  0  0  0  0  0  0  0  0  0  0  0
   11.8378   -1.3935   22.7371 C   0  0  0  0  0  0  0  0  0  0  0  0
   12.8012   -0.7566   21.9461 C   0  0  0  0  0  0  0  0  0  0  0  0
   13.8224   -1.7502   20.6611 Br  0  0  0  0  0  0  0  0  0  0  0  0
   13.0099    0.6199   22.0767 C   0  0  0  0  0  0  0  0  0  0  0  0
  1  2  3  0
  2  3  1  0
  3  4  1  0
  3  5  1  0
  3  6  1  0
  6  7  2  0
  6  8  1  0
  8  9  1  0
  9 10  2  0
 10 11  1  0
 11 12  1  0
 11 13  2  0
 13 14  1  0
 14 15  1  0
 14 16  2  0
 16  9  1  0
M  END
>  <Hit>  (111) 
Mpro-x0946_0

>  <Receptor>  (111) 
Mpro-x0874_0

>  <SCORE>  (111) 
-10.6012

>  <SCORE.norm>  (111) 
-0.662574

>  <SCORE.heavy>  (111) 
16

>  <OrigSmiles>  (111) 
C#CC(C)(C)C(=O)Nc1cc(Cl)cc(Br)c1

>  <SuCOS_Score>  (111) 
0.37808258512326487

>  <Max_SuCOS_Score>  (111) 
0.49863832765199645

>  <Cum_SuCOS_Score>  (111) 
4.8586009595298671

>  <TransFSScore_50nM>  (111) 
0.017995000000000001

>  <TransFSScore_1uM>  (111) 
0.039833

>  <TransFSScore_10nM>  (111) 
0.005457

>  <TransFSScore_200nM>  (111) 
0.007228

>  <TransFSScore>  (111) 
0.017628250000000002

>  <FeatureSteinScore>  (111) 
0.3718554857367955

$$$$
C#CC(C)(C)N1C2CCC1CC2
     RDKit          3D

 12 13  0  0  0  0  0  0  0  0999 V2000
   10.9096   -2.0851   22.6488 C   0  0  0  0  0  0  0  0  0  0  0  0
   10.1897   -2.7894   23.3120 C   0  0  0  0  0  0  0  0  0  0  0  0
    9.2990   -3.6595   24.1279 C   0  0  0  0  0  0  0  0  0  0  0  0
   10.2076   -4.5648   24.9879 C   0  0  0  0  0  0  0  0  0  0  0  0
    8.5412   -2.6928   25.0675 C   0  0  0  0  0  0  0  0  0  0  0  0
    8.4541   -4.4897   23.1824 N   0  0  0  0  0  0  0  0  0  0  0  0
    7.6128   -5.5870   23.6820 C   0  0  2  0  0  0  0  0  0  0  0  0
    7.0923   -6.2298   22.3669 C   0  0  0  0  0  0  0  0  0  0  0  0
    6.9481   -4.9910   21.4540 C   0  0  0  0  0  0  0  0  0  0  0  0
    7.3654   -3.8569   22.4218 C   0  0  1  0  0  0  0  0  0  0  0  0
    6.1816   -3.7083   23.4169 C   0  0  0  0  0  0  0  0  0  0  0  0
    6.4039   -4.9066   24.3456 C   0  0  0  0  0  0  0  0  0  0  0  0
  1  2  3  0
  2  3  1  0
  3  4  1  0
  3  5  1  0
  3  6  1  0
  6  7  1  0
  7  8  1  6
  8  9  1  0
 10  9  1  6
 10 11  1  0
 10  6  1  0
 11 12  1  0
 12  7  1  0
M  END
>  <Hit>  (112) 
Mpro-x0991_0

>  <Receptor>  (112) 
Mpro-x0305_0

>  <SCORE>  (112) 
-4.92455

>  <SCORE.norm>  (112) 
-0.41037899999999999

>  <SCORE.heavy>  (112) 
12

>  <OrigSmiles>  (112) 
C#CC(C)(C)N1C2CCC1CC2

>  <SuCOS_Score>  (112) 
0.3462774504552758

>  <Max_SuCOS_Score>  (112) 
0.3462774504552758

>  <Cum_SuCOS_Score>  (112) 
2.2442575112940739

>  <TransFSScore_50nM>  (112) 
0.0062909999999999997

>  <TransFSScore_1uM>  (112) 
0.075181999999999999

>  <TransFSScore_10nM>  (112) 
0.0061159999999999999

>  <TransFSScore_200nM>  (112) 
0.050493999999999997

>  <TransFSScore>  (112) 
0.034520750000000003

>  <FeatureSteinScore>  (112) 
0.096972458774172807

$$$$
C#CC(C)(C)N1C2CCC1CNC2
     RDKit          3D

 13 14  0  0  0  0  0  0  0  0999 V2000
    7.2485   -5.2840   27.5875 C   0  0  0  0  0  0  0  0  0  0  0  0
    7.8268   -5.1223   26.5416 C   0  0  0  0  0  0  0  0  0  0  0  0
    8.5358   -4.9243   25.2583 C   0  0  0  0  0  0  0  0  0  0  0  0
    9.0235   -3.4649   25.1951 C   0  0  0  0  0  0  0  0  0  0  0  0
    9.7580   -5.8638   25.2907 C   0  0  0  0  0  0  0  0  0  0  0  0
    7.6340   -5.3161   24.1307 N   0  0  0  0  0  0  0  0  0  0  0  0
    6.2738   -4.7697   24.0805 C   0  0  1  0  0  0  0  0  0  0  0  0
    6.3321   -3.5205   23.1889 C   0  0  0  0  0  0  0  0  0  0  0  0
    7.5490   -3.7527   22.3012 C   0  0  0  0  0  0  0  0  0  0  0  0
    8.0896   -5.1192   22.7524 C   0  0  2  0  0  0  0  0  0  0  0  0
    7.4172   -6.2513   21.9395 C   0  0  0  0  0  0  0  0  0  0  0  0
    5.9349   -6.2070   22.0447 N   0  0  0  0  0  0  0  0  0  0  0  0
    5.4235   -5.8684   23.3989 C   0  0  0  0  0  0  0  0  0  0  0  0
  1  2  3  0
  2  3  1  0
  3  4  1  0
  3  5  1  0
  3  6  1  0
  6  7  1  0
  7  8  1  6
  8  9  1  0
 10  9  1  6
 10 11  1  0
 10  6  1  0
 11 12  1  0
 12 13  1  0
 13  7  1  0
M  END
>  <Hit>  (113) 
Mpro-x0991_0

>  <Receptor>  (113) 
Mpro-x0305_0

>  <SCORE>  (113) 
-4.8072600000000003

>  <SCORE.norm>  (113) 
-0.36978899999999998

>  <SCORE.heavy>  (113) 
13

>  <OrigSmiles>  (113) 
C#CC(C)(C)N1C2CCC1CNC2

>  <SuCOS_Score>  (113) 
0.44167932786094805

>  <Max_SuCOS_Score>  (113) 
0.44167932786094805

>  <Cum_SuCOS_Score>  (113) 
1.508163414027482

>  <TransFSScore_50nM>  (113) 
0.025395999999999998

>  <TransFSScore_1uM>  (113) 
0.049715000000000002

>  <TransFSScore_10nM>  (113) 
0.010511

>  <TransFSScore_200nM>  (113) 
0.042978000000000002

>  <TransFSScore>  (113) 
0.032149999999999998

>  <FeatureSteinScore>  (113) 
0.2834004414086394

$$$$
C#CC(C)(C)N1[C@H]2CC[C@@H]1CNC2
     RDKit          3D

 13 14  0  0  0  0  0  0  0  0999 V2000
   10.1305   -2.7643   24.1529 C   0  0  0  0  0  0  0  0  0  0  0  0
    9.4820   -3.6930   24.5670 C   0  0  0  0  0  0  0  0  0  0  0  0
    8.6832   -4.8347   25.0765 C   0  0  0  0  0  0  0  0  0  0  0  0
    9.6734   -5.9884   25.3455 C   0  0  0  0  0  0  0  0  0  0  0  0
    8.0340   -4.4101   26.4082 C   0  0  0  0  0  0  0  0  0  0  0  0
    7.7019   -5.2543   24.0280 N   0  0  0  0  0  0  0  0  0  0  0  0
    6.4593   -4.4950   23.8682 C   0  0  1  0  0  0  0  0  0  0  0  0
    6.7178   -3.4542   22.7668 C   0  0  0  0  0  0  0  0  0  0  0  0
    7.8505   -4.0553   21.9430 C   0  0  0  0  0  0  0  0  0  0  0  0
    8.1536   -5.3905   22.6392 C   0  0  2  0  0  0  0  0  0  0  0  0
    7.2747   -6.5132   22.0381 C   0  0  0  0  0  0  0  0  0  0  0  0
    5.8261   -6.1893   22.1202 N   0  0  0  0  0  0  0  0  0  0  0  0
    5.4136   -5.5291   23.3868 C   0  0  0  0  0  0  0  0  0  0  0  0
  1  2  3  0
  2  3  1  0
  3  4  1  0
  3  5  1  0
  3  6  1  0
  6  7  1  0
  7  8  1  6
  8  9  1  0
 10  9  1  6
 10 11  1  0
 10  6  1  0
 11 12  1  0
 12 13  1  0
 13  7  1  0
M  END
>  <Hit>  (114) 
Mpro-x0991_0

>  <Receptor>  (114) 
Mpro-x0305_0

>  <SCORE>  (114) 
-5.4412000000000003

>  <SCORE.norm>  (114) 
-0.41855399999999998

>  <SCORE.heavy>  (114) 
13

>  <OrigSmiles>  (114) 
C#CC(C)(C)N1[C@H]2CC[C@@H]1CNC2

>  <SuCOS_Score>  (114) 
0.46041859509640726

>  <Max_SuCOS_Score>  (114) 
0.46041859509640726

>  <Cum_SuCOS_Score>  (114) 
1.8740127846901204

>  <TransFSScore_50nM>  (114) 
0.0097689999999999999

>  <TransFSScore_1uM>  (114) 
0.042171

>  <TransFSScore_10nM>  (114) 
0.0082459999999999999

>  <TransFSScore_200nM>  (114) 
0.077875

>  <TransFSScore>  (114) 
0.034515249999999997

>  <FeatureSteinScore>  (114) 
0.33556868207933543

$$$$
C#CC(C)(C)NC(=O)C12CC(CN1)C2
     RDKit          3D

 14 15  0  0  0  0  0  0  0  0999 V2000
   10.6708   -2.7437   23.4861 C   0  0  0  0  0  0  0  0  0  0  0  0
    9.9861   -3.5430   24.0750 C   0  0  0  0  0  0  0  0  0  0  0  0
    9.1459   -4.5219   24.7964 C   0  0  0  0  0  0  0  0  0  0  0  0
    8.3642   -5.3349   23.7505 C   0  0  0  0  0  0  0  0  0  0  0  0
   10.0783   -5.4369   25.6094 C   0  0  0  0  0  0  0  0  0  0  0  0
    8.2295   -3.7959   25.6909 N   0  0  0  0  0  0  0  0  0  0  0  0
    7.3446   -2.7372   25.2774 C   0  0  0  0  0  0  0  0  0  0  0  0
    7.3021   -2.3707   24.0726 O   0  0  0  0  0  0  0  0  0  0  0  0
    6.4551   -2.0519   26.2815 C   0  0  2  0  0  0  0  0  0  0  0  0
    7.0501   -1.0115   27.2204 C   0  0  0  0  0  0  0  0  0  0  0  0
    5.5832   -0.6008   27.2647 C   0  0  2  0  0  0  0  0  0  0  0  0
    4.9877   -1.8443   27.9390 C   0  0  0  0  0  0  0  0  0  0  0  0
    5.6655   -2.9134   27.1746 N   0  0  0  0  0  0  0  0  0  0  0  0
    5.4497   -1.0132   25.8038 C   0  0  0  0  0  0  0  0  0  0  0  0
  1  2  3  0
  2  3  1  0
  3  4  1  0
  3  5  1  0
  3  6  1  0
  6  7  1  0
  7  8  2  0
  9  7  1  6
  9 10  1  0
 11 10  1  1
 11 12  1  0
 11 14  1  0
 12 13  1  0
 13  9  1  0
 14  9  1  0
M  END
>  <Hit>  (115) 
Mpro-x0991_0

>  <Receptor>  (115) 
Mpro-x1249_0

>  <SCORE>  (115) 
-0.77423399999999998

>  <SCORE.norm>  (115) 
-0.055302499999999997

>  <SCORE.heavy>  (115) 
14

>  <OrigSmiles>  (115) 
C#CC(C)(C)NC(=O)C12CC(CN1)C2

>  <SuCOS_Score>  (115) 
0.4111971918000053

>  <Max_SuCOS_Score>  (115) 
0.4111971918000053

>  <Cum_SuCOS_Score>  (115) 
2.022744166163926

>  <TransFSScore_50nM>  (115) 
0.012555999999999999

>  <TransFSScore_1uM>  (115) 
0.049278000000000002

>  <TransFSScore_10nM>  (115) 
0.041889000000000003

>  <TransFSScore_200nM>  (115) 
0.045636000000000003

>  <TransFSScore>  (115) 
0.037339750000000005

>  <FeatureSteinScore>  (115) 
0.26381987095481069

$$$$
C#CC(C)(C)NC(=O)C12CCC(CC1)N2
     RDKit          3D

 15 16  0  0  0  0  0  0  0  0999 V2000
   10.5139   -5.6641   25.7014 C   0  0  0  0  0  0  0  0  0  0  0  0
    9.9558   -4.7293   25.1827 C   0  0  0  0  0  0  0  0  0  0  0  0
    9.2711   -3.5835   24.5482 C   0  0  0  0  0  0  0  0  0  0  0  0
    8.2292   -4.1413   23.5637 C   0  0  0  0  0  0  0  0  0  0  0  0
   10.3304   -2.7518   23.8044 C   0  0  0  0  0  0  0  0  0  0  0  0
    8.6253   -2.7756   25.5952 N   0  0  0  0  0  0  0  0  0  0  0  0
    7.9058   -1.5503   25.3629 C   0  0  0  0  0  0  0  0  0  0  0  0
    7.7877   -1.0854   24.1972 O   0  0  0  0  0  0  0  0  0  0  0  0
    7.2864   -0.8144   26.5266 C   0  0  1  0  0  0  0  0  0  0  0  0
    6.1664   -1.6085   27.2325 C   0  0  0  0  0  0  0  0  0  0  0  0
    5.4012   -0.4802   27.9389 C   0  0  0  0  0  0  0  0  0  0  0  0
    6.2138    0.7570   27.5094 C   0  0  1  0  0  0  0  0  0  0  0  0
    7.5399    0.7570   28.2948 C   0  0  0  0  0  0  0  0  0  0  0  0
    8.3125   -0.3670   27.5897 C   0  0  0  0  0  0  0  0  0  0  0  0
    6.6275    0.4317   26.1537 N   0  0  0  0  0  0  0  0  0  0  0  0
  1  2  3  0
  2  3  1  0
  3  4  1  0
  3  5  1  0
  3  6  1  0
  6  7  1  0
  7  8  2  0
  9  7  1  6
  9 10  1  0
 10 11  1  0
 12 11  1  1
 12 13  1  0
 12 15  1  0
 13 14  1  0
 14  9  1  0
 15  9  1  0
M  END
>  <Hit>  (116) 
Mpro-x0991_0

>  <Receptor>  (116) 
Mpro-x1249_0

>  <SCORE>  (116) 
-1.63086

>  <SCORE.norm>  (116) 
-0.108724

>  <SCORE.heavy>  (116) 
15

>  <OrigSmiles>  (116) 
C#CC(C)(C)NC(=O)C12CCC(CC1)N2

>  <SuCOS_Score>  (116) 
0.34676057723191006

>  <Max_SuCOS_Score>  (116) 
0.34676057723191006

>  <Cum_SuCOS_Score>  (116) 
2.1289405213014176

>  <TransFSScore_50nM>  (116) 
0.0099740000000000002

>  <TransFSScore_1uM>  (116) 
0.072236999999999996

>  <TransFSScore_10nM>  (116) 
0.043323

>  <TransFSScore_200nM>  (116) 
0.045017000000000001

>  <TransFSScore>  (116) 
0.042637749999999995

>  <FeatureSteinScore>  (116) 
0.27585902036301868

$$$$
C#CC(C)(C)NC(=O)C1C2CNC1C2
     RDKit          3D

 14 15  0  0  0  0  0  0  0  0999 V2000
   11.3147   -2.8417   24.1411 C   0  0  0  0  0  0  0  0  0  0  0  0
   10.6139   -3.5268   24.8439 C   0  0  0  0  0  0  0  0  0  0  0  0
    9.7565   -4.3652   25.7042 C   0  0  0  0  0  0  0  0  0  0  0  0
    8.4052   -4.5579   24.9941 C   0  0  0  0  0  0  0  0  0  0  0  0
   10.4159   -5.7400   25.9107 C   0  0  0  0  0  0  0  0  0  0  0  0
    9.5548   -3.7040   27.0015 N   0  0  0  0  0  0  0  0  0  0  0  0
    9.0992   -2.3480   27.1551 C   0  0  0  0  0  0  0  0  0  0  0  0
    8.6350   -1.7115   26.1708 O   0  0  0  0  0  0  0  0  0  0  0  0
    9.0826   -1.7054   28.5240 C   0  0  1  0  0  0  0  0  0  0  0  0
   10.3297   -0.9554   28.9981 C   0  0  1  0  0  0  0  0  0  0  0  0
   10.5668    0.0272   27.8417 C   0  0  0  0  0  0  0  0  0  0  0  0
    9.1847    0.4933   27.6039 N   0  0  0  0  0  0  0  0  0  0  0  0
    8.5029   -0.2903   28.6487 C   0  0  2  0  0  0  0  0  0  0  0  0
    9.4164   -0.0858   29.8547 C   0  0  0  0  0  0  0  0  0  0  0  0
  1  2  3  0
  2  3  1  0
  3  4  1  0
  3  5  1  0
  3  6  1  0
  6  7  1  0
  7  8  2  0
  9  7  1  6
  9 10  1  0
 10 11  1  6
 11 12  1  0
 12 13  1  0
 13 14  1  1
 13  9  1  0
 14 10  1  0
M  END
>  <Hit>  (117) 
Mpro-x0991_0

>  <Receptor>  (117) 
Mpro-x0387_0

>  <SCORE>  (117) 
-3.3992

>  <SCORE.norm>  (117) 
-0.24279999999999999

>  <SCORE.heavy>  (117) 
14

>  <OrigSmiles>  (117) 
C#CC(C)(C)NC(=O)C1C2CNC1C2

>  <SuCOS_Score>  (117) 
0.29377590008888255

>  <Max_SuCOS_Score>  (117) 
0.29377590008888255

>  <Cum_SuCOS_Score>  (117) 
1.9531225162077686

>  <TransFSScore_50nM>  (117) 
0.014624

>  <TransFSScore_1uM>  (117) 
0.024396999999999999

>  <TransFSScore_10nM>  (117) 
0.016410999999999999

>  <TransFSScore_200nM>  (117) 
0.061055999999999999

>  <TransFSScore>  (117) 
0.029121999999999999

>  <FeatureSteinScore>  (117) 
0.2308756081441467

$$$$
C#CC(C)(C)NC(=O)C1CC2CCC1N2
     RDKit          3D

 15 16  0  0  0  0  0  0  0  0999 V2000
    5.6134   -4.3738   25.5928 C   0  0  0  0  0  0  0  0  0  0  0  0
    6.7584   -4.3310   25.2169 C   0  0  0  0  0  0  0  0  0  0  0  0
    8.1590   -4.2778   24.7560 C   0  0  0  0  0  0  0  0  0  0  0  0
    8.3600   -5.2527   23.5846 C   0  0  0  0  0  0  0  0  0  0  0  0
    9.0747   -4.6789   25.9190 C   0  0  0  0  0  0  0  0  0  0  0  0
    8.4986   -2.9127   24.3556 N   0  0  0  0  0  0  0  0  0  0  0  0
    9.7903   -2.4564   23.9306 C   0  0  0  0  0  0  0  0  0  0  0  0
   10.7537   -3.2655   23.8395 O   0  0  0  0  0  0  0  0  0  0  0  0
    9.9849   -0.9925   23.6259 C   0  0  2  0  0  0  0  0  0  0  0  0
    9.4321   -0.5678   22.2486 C   0  0  0  0  0  0  0  0  0  0  0  0
   10.6946    0.0164   21.5838 C   0  0  1  0  0  0  0  0  0  0  0  0
   11.0165    1.3677   22.2530 C   0  0  0  0  0  0  0  0  0  0  0  0
   11.5995    0.9102   23.5990 C   0  0  0  0  0  0  0  0  0  0  0  0
   11.4813   -0.6216   23.4750 C   0  0  2  0  0  0  0  0  0  0  0  0
   11.7570   -0.8515   22.0639 N   0  0  0  0  0  0  0  0  0  0  0  0
  1  2  3  0
  2  3  1  0
  3  4  1  0
  3  5  1  0
  3  6  1  0
  6  7  1  0
  7  8  2  0
  9  7  1  6
  9 10  1  0
 11 10  1  1
 11 12  1  0
 12 13  1  0
 14 13  1  6
 14 15  1  0
 14  9  1  0
 15 11  1  0
M  END
>  <Hit>  (118) 
Mpro-x0991_0

>  <Receptor>  (118) 
Mpro-x1249_0

>  <SCORE>  (118) 
-3.7124199999999998

>  <SCORE.norm>  (118) 
-0.24749499999999999

>  <SCORE.heavy>  (118) 
15

>  <OrigSmiles>  (118) 
C#CC(C)(C)NC(=O)C1CC2CCC1N2

>  <SuCOS_Score>  (118) 
0.36656091274859592

>  <Max_SuCOS_Score>  (118) 
0.44772671511237383

>  <Cum_SuCOS_Score>  (118) 
4.3526451205909158

>  <TransFSScore_50nM>  (118) 
0.0089540000000000002

>  <TransFSScore_1uM>  (118) 
0.047836999999999998

>  <TransFSScore_10nM>  (118) 
0.026949000000000001

>  <TransFSScore_200nM>  (118) 
0.101534

>  <TransFSScore>  (118) 
0.046318499999999999

>  <FeatureSteinScore>  (118) 
0.58533372244886572

$$$$
C#CC(C)(C)NC(=O)[C@@H]1C[C@@H]2CC[C@H]1N2
     RDKit          3D

 15 16  0  0  0  0  0  0  0  0999 V2000
    7.5134   -4.9411   22.9093 C   0  0  0  0  0  0  0  0  0  0  0  0
    8.3419   -4.5026   23.6680 C   0  0  0  0  0  0  0  0  0  0  0  0
    9.3598   -3.9650   24.6012 C   0  0  0  0  0  0  0  0  0  0  0  0
   10.0549   -5.1590   25.2790 C   0  0  0  0  0  0  0  0  0  0  0  0
   10.3684   -3.1455   23.7774 C   0  0  0  0  0  0  0  0  0  0  0  0
    8.7049   -3.1134   25.6085 N   0  0  0  0  0  0  0  0  0  0  0  0
    7.7356   -2.0896   25.3198 C   0  0  0  0  0  0  0  0  0  0  0  0
    7.2757   -1.9541   24.1540 O   0  0  0  0  0  0  0  0  0  0  0  0
    7.2721   -1.1786   26.4350 C   0  0  2  0  0  0  0  0  0  0  0  0
    6.2454   -0.0913   26.0437 C   0  0  0  0  0  0  0  0  0  0  0  0
    6.9438    1.1781   26.5574 C   0  0  2  0  0  0  0  0  0  0  0  0
    8.0818    1.5391   25.5857 C   0  0  0  0  0  0  0  0  0  0  0  0
    9.1288    0.4822   25.9432 C   0  0  0  0  0  0  0  0  0  0  0  0
    8.3951   -0.3128   27.0457 C   0  0  1  0  0  0  0  0  0  0  0  0
    7.6305    0.7032   27.7470 N   0  0  0  0  0  0  0  0  0  0  0  0
  1  2  3  0
  2  3  1  0
  3  4  1  0
  3  5  1  0
  3  6  1  0
  6  7  1  0
  7  8  2  0
  9  7  1  6
  9 10  1  0
 11 10  1  6
 11 12  1  0
 12 13  1  0
 14 13  1  6
 14 15  1  0
 14  9  1  0
 15 11  1  0
M  END
>  <Hit>  (119) 
Mpro-x0991_0

>  <Receptor>  (119) 
Mpro-x0874_0

>  <SCORE>  (119) 
-2.4641799999999998

>  <SCORE.norm>  (119) 
-0.16427900000000001

>  <SCORE.heavy>  (119) 
15

>  <OrigSmiles>  (119) 
C#CC(C)(C)NC(=O)[C@@H]1C[C@@H]2CC[C@H]1N2

>  <SuCOS_Score>  (119) 
0.483835089903353

>  <Max_SuCOS_Score>  (119) 
0.483835089903353

>  <Cum_SuCOS_Score>  (119) 
2.3472286151125954

>  <TransFSScore_50nM>  (119) 
0.0098469999999999999

>  <TransFSScore_1uM>  (119) 
0.032986000000000001

>  <TransFSScore_10nM>  (119) 
0.0097050000000000001

>  <TransFSScore_200nM>  (119) 
0.020005999999999999

>  <TransFSScore>  (119) 
0.018135999999999999

>  <FeatureSteinScore>  (119) 
0.36403792599452672

$$$$
C#CC(C)(C)NC(=O)[C@H]1[C@@H]2C[C@H]1CN2
     RDKit          3D

 14 15  0  0  0  0  0  0  0  0999 V2000
    9.6399   -6.4866   26.0243 C   0  0  0  0  0  0  0  0  0  0  0  0
    9.5347   -5.3112   25.7759 C   0  0  0  0  0  0  0  0  0  0  0  0
    9.4060   -3.8714   25.4756 C   0  0  0  0  0  0  0  0  0  0  0  0
    8.3973   -3.7103   24.3249 C   0  0  0  0  0  0  0  0  0  0  0  0
   10.7676   -3.3097   25.0317 C   0  0  0  0  0  0  0  0  0  0  0  0
    8.9289   -3.1549   26.6676 N   0  0  0  0  0  0  0  0  0  0  0  0
    8.9188   -1.7219   26.8023 C   0  0  0  0  0  0  0  0  0  0  0  0
    9.2223   -0.9827   25.8274 O   0  0  0  0  0  0  0  0  0  0  0  0
    8.4812   -1.0816   28.1021 C   0  0  1  0  0  0  0  0  0  0  0  0
    9.2864   -1.4050   29.3613 C   0  0  2  0  0  0  0  0  0  0  0  0
    8.8826   -0.0398   29.9112 C   0  0  0  0  0  0  0  0  0  0  0  0
    9.0165    0.3140   28.4372 C   0  0  1  0  0  0  0  0  0  0  0  0
   10.5297    0.1096   28.2950 C   0  0  0  0  0  0  0  0  0  0  0  0
   10.6864   -1.2039   28.9525 N   0  0  0  0  0  0  0  0  0  0  0  0
  1  2  3  0
  2  3  1  0
  3  4  1  0
  3  5  1  0
  3  6  1  0
  6  7  1  0
  7  8  2  0
  9  7  1  6
  9 10  1  0
 10 11  1  1
 12 11  1  1
 12 13  1  0
 12  9  1  0
 13 14  1  0
 14 10  1  0
M  END
>  <Hit>  (120) 
Mpro-x0991_0

>  <Receptor>  (120) 
Mpro-x0387_0

>  <SCORE>  (120) 
-2.79758

>  <SCORE.norm>  (120) 
-0.199827

>  <SCORE.heavy>  (120) 
14

>  <OrigSmiles>  (120) 
C#CC(C)(C)NC(=O)[C@H]1[C@@H]2C[C@H]1CN2

>  <SuCOS_Score>  (120) 
0.31911919923398158

>  <Max_SuCOS_Score>  (120) 
0.31911919923398158

>  <Cum_SuCOS_Score>  (120) 
1.7782273759443707

>  <TransFSScore_50nM>  (120) 
0.00106

>  <TransFSScore_1uM>  (120) 
0.038417

>  <TransFSScore_10nM>  (120) 
0.0097459999999999995

>  <TransFSScore_200nM>  (120) 
0.019726

>  <TransFSScore>  (120) 
0.017237249999999999

>  <FeatureSteinScore>  (120) 
0.10395546404290568

$$$$
C#CC(C)(C)NC(=O)c1c[nH]c2ccccc12
     RDKit          3D

 17 18  0  0  0  0  0  0  0  0999 V2000
   10.3067    6.2867   23.2751 C   0  0  0  0  0  0  0  0  0  0  0  0
    9.1826    5.9687   22.9759 C   0  0  0  0  0  0  0  0  0  0  0  0
    7.8063    5.5802   22.6097 C   0  0  0  0  0  0  0  0  0  0  0  0
    7.2296    6.5915   21.6039 C   0  0  0  0  0  0  0  0  0  0  0  0
    6.9470    5.5942   23.8866 C   0  0  0  0  0  0  0  0  0  0  0  0
    7.8044    4.2259   22.0264 N   0  0  0  0  0  0  0  0  0  0  0  0
    8.7168    3.1785   22.4127 C   0  0  0  0  0  0  0  0  0  0  0  0
    9.5709    3.3914   23.3139 O   0  0  0  0  0  0  0  0  0  0  0  0
    8.6553    1.8418   21.7689 C   0  0  0  0  0  0  0  0  0  0  0  0
    7.7295    1.4035   20.8190 C   0  0  0  0  0  0  0  0  0  0  0  0
    7.9870    0.1233   20.4661 N   0  0  0  0  0  0  0  0  0  0  0  0
    9.0630   -0.2611   21.1778 C   0  0  0  0  0  0  0  0  0  0  0  0
    9.7079   -1.5033   21.1490 C   0  0  0  0  0  0  0  0  0  0  0  0
   10.8296   -1.6891   21.9787 C   0  0  0  0  0  0  0  0  0  0  0  0
   11.2802   -0.6433   22.8092 C   0  0  0  0  0  0  0  0  0  0  0  0
   10.6151    0.5951   22.8176 C   0  0  0  0  0  0  0  0  0  0  0  0
    9.4995    0.7572   21.9866 C   0  0  0  0  0  0  0  0  0  0  0  0
  1  2  3  0
  2  3  1  0
  3  4  1  0
  3  5  1  0
  3  6  1  0
  6  7  1  0
  7  8  2  0
  7  9  1  0
  9 10  2  0
 10 11  1  0
 11 12  1  0
 12 13  2  0
 13 14  1  0
 14 15  2  0
 15 16  1  0
 16 17  2  0
 17  9  1  0
 17 12  1  0
M  END
>  <Hit>  (121) 
Mpro-x0104_0

>  <Receptor>  (121) 
Mpro-x0387_0

>  <SCORE>  (121) 
-6.5888099999999996

>  <SCORE.norm>  (121) 
-0.387577

>  <SCORE.heavy>  (121) 
17

>  <OrigSmiles>  (121) 
C#CC(C)(C)NC(=O)c1c[nH]c2ccccc12

>  <SuCOS_Score>  (121) 
0.17874641977086864

>  <Max_SuCOS_Score>  (121) 
0.23874740768422928

>  <Cum_SuCOS_Score>  (121) 
3.1107113197974332

>  <TransFSScore_50nM>  (121) 
0.0028630000000000001

>  <TransFSScore_1uM>  (121) 
0.022185

>  <TransFSScore_10nM>  (121) 
0.0039560000000000003

>  <TransFSScore_200nM>  (121) 
0.017177999999999999

>  <TransFSScore>  (121) 
0.0115455

>  <FeatureSteinScore>  (121) 
0.10038094656789895

$$$$
C#CC(C)(C)NCc1ccc(Br)cc1Cl
     RDKit          3D

 15 15  0  0  0  0  0  0  0  0999 V2000
    7.8892    3.2353   22.4244 C   0  0  0  0  0  0  0  0  0  0  0  0
    8.0215    4.4216   22.5959 C   0  0  0  0  0  0  0  0  0  0  0  0
    8.1874    5.8775   22.8064 C   0  0  0  0  0  0  0  0  0  0  0  0
    7.4085    6.3069   24.0669 C   0  0  0  0  0  0  0  0  0  0  0  0
    7.5901    6.6084   21.5917 C   0  0  0  0  0  0  0  0  0  0  0  0
    9.6227    6.2378   22.9044 N   0  0  0  0  0  0  0  0  0  0  0  0
   10.2896    5.7693   24.1331 C   0  0  0  0  0  0  0  0  0  0  0  0
   11.0553    4.4978   23.8553 C   0  0  0  0  0  0  0  0  0  0  0  0
   10.4753    3.2594   24.1835 C   0  0  0  0  0  0  0  0  0  0  0  0
   11.1726    2.0660   23.9665 C   0  0  0  0  0  0  0  0  0  0  0  0
   12.4629    2.0972   23.4280 C   0  0  0  0  0  0  0  0  0  0  0  0
   13.4218    0.4697   23.0931 Br  0  0  0  0  0  0  0  0  0  0  0  0
   13.0577    3.3229   23.1187 C   0  0  0  0  0  0  0  0  0  0  0  0
   12.3665    4.5220   23.3313 C   0  0  0  0  0  0  0  0  0  0  0  0
   13.1829    6.0331   22.9414 Cl  0  0  0  0  0  0  0  0  0  0  0  0
  1  2  3  0
  2  3  1  0
  3  4  1  0
  3  5  1  0
  3  6  1  0
  6  7  1  0
  7  8  1  0
  8  9  2  0
  9 10  1  0
 10 11  2  0
 11 12  1  0
 11 13  1  0
 13 14  2  0
 14 15  1  0
 14  8  1  0
M  END
>  <Hit>  (122) 
Mpro-x0946_0

>  <Receptor>  (122) 
Mpro-x1249_0

>  <SCORE>  (122) 
-10.6264

>  <SCORE.norm>  (122) 
-0.70842499999999997

>  <SCORE.heavy>  (122) 
15

>  <OrigSmiles>  (122) 
C#CC(C)(C)NCc1ccc(Br)cc1Cl

>  <SuCOS_Score>  (122) 
0.48886440757305122

>  <Max_SuCOS_Score>  (122) 
0.48886440757305122

>  <Cum_SuCOS_Score>  (122) 
2.7119162063303324

>  <TransFSScore_50nM>  (122) 
0.0018810000000000001

>  <TransFSScore_1uM>  (122) 
0.01208

>  <TransFSScore_10nM>  (122) 
0.000163

>  <TransFSScore_200nM>  (122) 
0.0040699999999999998

>  <TransFSScore>  (122) 
0.0045485000000000005

>  <FeatureSteinScore>  (122) 
0.23069013011192099

$$$$
C#CC(C)(C)c1c(Cl)cccc1Br
     RDKit          3D

 13 13  0  0  0  0  0  0  0  0999 V2000
    8.5027    0.2846   20.2554 C   0  0  0  0  0  0  0  0  0  0  0  0
    9.1441    0.6430   21.2133 C   0  0  0  0  0  0  0  0  0  0  0  0
    9.9111    1.0647   22.4106 C   0  0  0  0  0  0  0  0  0  0  0  0
    9.9190    2.6074   22.2996 C   0  0  0  0  0  0  0  0  0  0  0  0
    9.1242    0.6774   23.6767 C   0  0  0  0  0  0  0  0  0  0  0  0
   11.3099    0.3551   22.4387 C   0  0  0  0  0  0  0  0  0  0  0  0
   11.3961   -1.0262   22.0602 C   0  0  0  0  0  0  0  0  0  0  0  0
   10.0072   -2.0921   21.8080 Cl  0  0  0  0  0  0  0  0  0  0  0  0
   12.6264   -1.6762   21.9650 C   0  0  0  0  0  0  0  0  0  0  0  0
   13.7962   -1.0303   22.3314 C   0  0  0  0  0  0  0  0  0  0  0  0
   13.7497    0.2784   22.8002 C   0  0  0  0  0  0  0  0  0  0  0  0
   12.5320    0.9801   22.8643 C   0  0  0  0  0  0  0  0  0  0  0  0
   12.6684    2.7745   23.5545 Br  0  0  0  0  0  0  0  0  0  0  0  0
  1  2  3  0
  2  3  1  0
  3  4  1  0
  3  5  1  0
  3  6  1  0
  6  7  2  0
  7  8  1  0
  7  9  1  0
  9 10  2  0
 10 11  1  0
 11 12  2  0
 12 13  1  0
 12  6  1  0
M  END
>  <Hit>  (123) 
Mpro-x0946_0

>  <Receptor>  (123) 
Mpro-x0305_0

>  <SCORE>  (123) 
-10.128299999999999

>  <SCORE.norm>  (123) 
-0.77909799999999996

>  <SCORE.heavy>  (123) 
13

>  <OrigSmiles>  (123) 
C#CC(C)(C)c1c(Cl)cccc1Br

>  <SuCOS_Score>  (123) 
0.33540256233652932

>  <Max_SuCOS_Score>  (123) 
0.53605427901515634

>  <Cum_SuCOS_Score>  (123) 
4.9958923251615124

>  <TransFSScore_50nM>  (123) 
0.058104000000000003

>  <TransFSScore_1uM>  (123) 
0.13444600000000001

>  <TransFSScore_10nM>  (123) 
0.0067450000000000001

>  <TransFSScore_200nM>  (123) 
0.067404000000000006

>  <TransFSScore>  (123) 
0.066674750000000005

>  <FeatureSteinScore>  (123) 
0.4474917170285681

$$$$
C#CC(C)(C)c1ccc(Br)cc1Cl
     RDKit          3D

 13 13  0  0  0  0  0  0  0  0999 V2000
    8.4790    4.5673   25.9715 C   0  0  0  0  0  0  0  0  0  0  0  0
    9.3871    4.9190   25.2592 C   0  0  0  0  0  0  0  0  0  0  0  0
   10.5075    5.3378   24.3910 C   0  0  0  0  0  0  0  0  0  0  0  0
   11.3098    6.3789   25.2073 C   0  0  0  0  0  0  0  0  0  0  0  0
    9.9534    6.0456   23.1391 C   0  0  0  0  0  0  0  0  0  0  0  0
   11.3423    4.1041   23.9685 C   0  0  0  0  0  0  0  0  0  0  0  0
   10.9219    2.7933   24.3115 C   0  0  0  0  0  0  0  0  0  0  0  0
   11.6734    1.6698   23.9573 C   0  0  0  0  0  0  0  0  0  0  0  0
   12.8719    1.8186   23.2628 C   0  0  0  0  0  0  0  0  0  0  0  0
   13.8985    0.2839   22.7427 Br  0  0  0  0  0  0  0  0  0  0  0  0
   13.3260    3.0928   22.9337 C   0  0  0  0  0  0  0  0  0  0  0  0
   12.5866    4.2301   23.2791 C   0  0  0  0  0  0  0  0  0  0  0  0
   13.3021    5.7770   22.8226 Cl  0  0  0  0  0  0  0  0  0  0  0  0
  1  2  3  0
  2  3  1  0
  3  4  1  0
  3  5  1  0
  3  6  1  0
  6  7  2  0
  7  8  1  0
  8  9  2  0
  9 10  1  0
  9 11  1  0
 11 12  2  0
 12 13  1  0
 12  6  1  0
M  END
>  <Hit>  (124) 
Mpro-x0946_0

>  <Receptor>  (124) 
Mpro-x0874_0

>  <SCORE>  (124) 
-9.0837500000000002

>  <SCORE.norm>  (124) 
-0.69874999999999998

>  <SCORE.heavy>  (124) 
13

>  <OrigSmiles>  (124) 
C#CC(C)(C)c1ccc(Br)cc1Cl

>  <SuCOS_Score>  (124) 
0.56116056624011013

>  <Max_SuCOS_Score>  (124) 
0.56116056624011013

>  <Cum_SuCOS_Score>  (124) 
2.7761315167865215

>  <TransFSScore_50nM>  (124) 
0.10571700000000001

>  <TransFSScore_1uM>  (124) 
0.092091999999999993

>  <TransFSScore_10nM>  (124) 
0.0023890000000000001

>  <TransFSScore_200nM>  (124) 
0.022284000000000002

>  <TransFSScore>  (124) 
0.055620500000000003

>  <FeatureSteinScore>  (124) 
0.34431025353441619

$$$$
C#CC(C)(C)c1ccc(Cl)c(S(N)(=O)=O)c1
     RDKit          3D

 16 16  0  0  0  0  0  0  0  0999 V2000
   12.9755   -1.4896   21.5715 C   0  0  0  0  0  0  0  0  0  0  0  0
   12.0718   -0.7985   21.9718 C   0  0  0  0  0  0  0  0  0  0  0  0
   10.9642    0.0493   22.4632 C   0  0  0  0  0  0  0  0  0  0  0  0
    9.8835    0.1364   21.3707 C   0  0  0  0  0  0  0  0  0  0  0  0
   10.3663   -0.6584   23.6985 C   0  0  0  0  0  0  0  0  0  0  0  0
   11.4970    1.4607   22.7612 C   0  0  0  0  0  0  0  0  0  0  0  0
   12.8734    1.7673   22.7695 C   0  0  0  0  0  0  0  0  0  0  0  0
   13.3206    3.0488   23.0799 C   0  0  0  0  0  0  0  0  0  0  0  0
   12.4211    4.0603   23.3952 C   0  0  0  0  0  0  0  0  0  0  0  0
   13.1236    5.6407   23.7312 Cl  0  0  0  0  0  0  0  0  0  0  0  0
   11.0414    3.7784   23.4129 C   0  0  0  0  0  0  0  0  0  0  0  0
    9.8384    5.0036   23.7176 S   0  0  0  0  0  0  0  0  0  0  0  0
   10.0658    6.2296   22.5419 N   0  0  0  0  0  0  0  0  0  0  0  0
    8.4703    4.4140   23.5640 O   0  0  0  0  0  0  0  0  0  0  0  0
    9.9915    5.6025   25.0807 O   0  0  0  0  0  0  0  0  0  0  0  0
   10.5926    2.4869   23.1022 C   0  0  0  0  0  0  0  0  0  0  0  0
  1  2  3  0
  2  3  1  0
  3  4  1  0
  3  5  1  0
  3  6  1  0
  6  7  2  0
  7  8  1  0
  8  9  2  0
  9 10  1  0
  9 11  1  0
 11 12  1  0
 11 16  2  0
 12 13  1  0
 12 14  2  0
 12 15  2  0
 16  6  1  0
M  END
>  <Hit>  (125) 
Mpro-x0946_0

>  <Receptor>  (125) 
Mpro-x0874_0

>  <SCORE>  (125) 
-11.4794

>  <SCORE.norm>  (125) 
-0.71746500000000002

>  <SCORE.heavy>  (125) 
16

>  <OrigSmiles>  (125) 
C#CC(C)(C)c1ccc(Cl)c(S(N)(=O)=O)c1

>  <SuCOS_Score>  (125) 
0.63777811598121148

>  <Max_SuCOS_Score>  (125) 
0.63777811598121148

>  <Cum_SuCOS_Score>  (125) 
4.730398593504388

>  <TransFSScore_50nM>  (125) 
0.82889999999999997

>  <TransFSScore_1uM>  (125) 
0.49035499999999999

>  <TransFSScore_10nM>  (125) 
0.50729100000000005

>  <TransFSScore_200nM>  (125) 
0.95484899999999995

>  <TransFSScore>  (125) 
0.69534874999999996

>  <FeatureSteinScore>  (125) 
0.5562448080142145

$$$$
C#CC(C)(C)c1ccc(Cl)cc1Br
     RDKit          3D

 13 13  0  0  0  0  0  0  0  0999 V2000
   11.1234   -3.5741   24.4838 C   0  0  0  0  0  0  0  0  0  0  0  0
   11.1563   -2.4583   24.0254 C   0  0  0  0  0  0  0  0  0  0  0  0
   11.1843   -1.0843   23.4818 C   0  0  0  0  0  0  0  0  0  0  0  0
   12.5233   -0.8342   22.7597 C   0  0  0  0  0  0  0  0  0  0  0  0
   11.1414   -0.1514   24.7173 C   0  0  0  0  0  0  0  0  0  0  0  0
   10.0043   -0.8708   22.4964 C   0  0  0  0  0  0  0  0  0  0  0  0
    9.1662   -1.9588   22.1511 C   0  0  0  0  0  0  0  0  0  0  0  0
    8.0869   -1.8049   21.2840 C   0  0  0  0  0  0  0  0  0  0  0  0
    7.8002   -0.5556   20.7410 C   0  0  0  0  0  0  0  0  0  0  0  0
    6.4401   -0.3641   19.6497 Cl  0  0  0  0  0  0  0  0  0  0  0  0
    8.5899    0.5473   21.0739 C   0  0  0  0  0  0  0  0  0  0  0  0
    9.6794    0.4085   21.9503 C   0  0  0  0  0  0  0  0  0  0  0  0
   10.6684    2.0111   22.3756 Br  0  0  0  0  0  0  0  0  0  0  0  0
  1  2  3  0
  2  3  1  0
  3  4  1  0
  3  5  1  0
  3  6  1  0
  6  7  2  0
  7  8  1  0
  8  9  2  0
  9 10  1  0
  9 11  1  0
 11 12  2  0
 12 13  1  0
 12  6  1  0
M  END
>  <Hit>  (126) 
Mpro-x0946_0

>  <Receptor>  (126) 
Mpro-x0387_0

>  <SCORE>  (126) 
-5.4687599999999996

>  <SCORE.norm>  (126) 
-0.42067399999999999

>  <SCORE.heavy>  (126) 
13

>  <OrigSmiles>  (126) 
C#CC(C)(C)c1ccc(Cl)cc1Br

>  <SuCOS_Score>  (126) 
0.14714633486610768

>  <Max_SuCOS_Score>  (126) 
0.36935515971685567

>  <Cum_SuCOS_Score>  (126) 
4.81818041899826

>  <TransFSScore_50nM>  (126) 
0.028917000000000002

>  <TransFSScore_1uM>  (126) 
0.051326999999999998

>  <TransFSScore_10nM>  (126) 
0.0054380000000000001

>  <TransFSScore_200nM>  (126) 
0.088039000000000006

>  <TransFSScore>  (126) 
0.043430250000000004

>  <FeatureSteinScore>  (126) 
0.44468383878900924

$$$$
C#CC(C)(C)c1ccc(Oc2ccccc2)cc1
     RDKit          3D

 18 19  0  0  0  0  0  0  0  0999 V2000
    4.5902    5.5632   23.6971 C   0  0  0  0  0  0  0  0  0  0  0  0
    5.5637    5.1011   23.1550 C   0  0  0  0  0  0  0  0  0  0  0  0
    6.7574    4.5340   22.4896 C   0  0  0  0  0  0  0  0  0  0  0  0
    7.7666    4.1084   23.5695 C   0  0  0  0  0  0  0  0  0  0  0  0
    7.3798    5.6706   21.6483 C   0  0  0  0  0  0  0  0  0  0  0  0
    6.3475    3.3131   21.6542 C   0  0  0  0  0  0  0  0  0  0  0  0
    7.2465    2.2640   21.3655 C   0  0  0  0  0  0  0  0  0  0  0  0
    6.8370    1.1560   20.6229 C   0  0  0  0  0  0  0  0  0  0  0  0
    5.5248    1.0629   20.1585 C   0  0  0  0  0  0  0  0  0  0  0  0
    5.1389   -0.0722   19.4396 O   0  0  0  0  0  0  0  0  0  0  0  0
    5.3434   -1.4006   19.8422 C   0  0  0  0  0  0  0  0  0  0  0  0
    5.3048   -2.4711   18.9285 C   0  0  0  0  0  0  0  0  0  0  0  0
    5.5308   -3.7794   19.3680 C   0  0  0  0  0  0  0  0  0  0  0  0
    5.8077   -4.0278   20.7150 C   0  0  0  0  0  0  0  0  0  0  0  0
    5.8665   -2.9671   21.6232 C   0  0  0  0  0  0  0  0  0  0  0  0
    5.6412   -1.6577   21.1865 C   0  0  0  0  0  0  0  0  0  0  0  0
    4.6113    2.0758   20.4671 C   0  0  0  0  0  0  0  0  0  0  0  0
    5.0155    3.1836   21.2085 C   0  0  0  0  0  0  0  0  0  0  0  0
  1  2  3  0
  2  3  1  0
  3  4  1  0
  3  5  1  0
  3  6  1  0
  6  7  2  0
  7  8  1  0
  8  9  2  0
  9 10  1  0
  9 17  1  0
 10 11  1  0
 11 12  2  0
 12 13  1  0
 13 14  2  0
 14 15  1  0
 15 16  2  0
 16 11  1  0
 17 18  2  0
 18  6  1  0
M  END
>  <Hit>  (127) 
Mpro-x0967_0

>  <Receptor>  (127) 
Mpro-x0387_0

>  <SCORE>  (127) 
-4.01485

>  <SCORE.norm>  (127) 
-0.223047

>  <SCORE.heavy>  (127) 
18

>  <OrigSmiles>  (127) 
C#CC(C)(C)c1ccc(Oc2ccccc2)cc1

>  <SuCOS_Score>  (127) 
0.19009768534871627

>  <Max_SuCOS_Score>  (127) 
0.27679698236419586

>  <Cum_SuCOS_Score>  (127) 
1.6665609406113142

>  <TransFSScore_50nM>  (127) 
0.34961599999999998

>  <TransFSScore_1uM>  (127) 
0.73950099999999996

>  <TransFSScore_10nM>  (127) 
0.034070999999999997

>  <TransFSScore_200nM>  (127) 
0.42709999999999998

>  <TransFSScore>  (127) 
0.38757199999999997

>  <FeatureSteinScore>  (127) 
0.051518478791606884

$$$$
C#CC(C)(C)c1ccc(Oc2ccccc2)cn1
     RDKit          3D

 18 19  0  0  0  0  0  0  0  0999 V2000
   -1.9275    0.9260   22.7075 C   0  0  0  0  0  0  0  0  0  0  0  0
   -1.1047    1.7720   22.9562 C   0  0  0  0  0  0  0  0  0  0  0  0
   -0.0965    2.8081   23.2604 C   0  0  0  0  0  0  0  0  0  0  0  0
    0.5302    2.5136   24.6343 C   0  0  0  0  0  0  0  0  0  0  0  0
   -0.8197    4.1693   23.3156 C   0  0  0  0  0  0  0  0  0  0  0  0
    0.9898    2.7948   22.1898 C   0  0  0  0  0  0  0  0  0  0  0  0
    1.1754    1.6723   21.3607 C   0  0  0  0  0  0  0  0  0  0  0  0
    2.1967    1.6753   20.4100 C   0  0  0  0  0  0  0  0  0  0  0  0
    3.0303    2.7872   20.2769 C   0  0  0  0  0  0  0  0  0  0  0  0
    4.0580    2.7572   19.3226 O   0  0  0  0  0  0  0  0  0  0  0  0
    4.6772    1.6034   18.8328 C   0  0  0  0  0  0  0  0  0  0  0  0
    4.4806    0.3475   19.4298 C   0  0  0  0  0  0  0  0  0  0  0  0
    5.1368   -0.7773   18.9257 C   0  0  0  0  0  0  0  0  0  0  0  0
    5.9969   -0.6560   17.8323 C   0  0  0  0  0  0  0  0  0  0  0  0
    6.2050    0.5940   17.2457 C   0  0  0  0  0  0  0  0  0  0  0  0
    5.5518    1.7212   17.7486 C   0  0  0  0  0  0  0  0  0  0  0  0
    2.8404    3.8773   21.1406 C   0  0  0  0  0  0  0  0  0  0  0  0
    1.8413    3.8528   22.0616 N   0  0  0  0  0  0  0  0  0  0  0  0
  1  2  3  0
  2  3  1  0
  3  4  1  0
  3  5  1  0
  3  6  1  0
  6  7  2  0
  7  8  1  0
  8  9  2  0
  9 10  1  0
  9 17  1  0
 10 11  1  0
 11 12  2  0
 12 13  1  0
 13 14  2  0
 14 15  1  0
 15 16  2  0
 16 11  1  0
 17 18  2  0
 18  6  1  0
M  END
>  <Hit>  (128) 
Mpro-x0967_0

>  <Receptor>  (128) 
Mpro-x0387_0

>  <SCORE>  (128) 
-4.9583300000000001

>  <SCORE.norm>  (128) 
-0.27546300000000001

>  <SCORE.heavy>  (128) 
18

>  <OrigSmiles>  (128) 
C#CC(C)(C)c1ccc(Oc2ccccc2)cn1

>  <SuCOS_Score>  (128) 
0.11819638253547241

>  <Max_SuCOS_Score>  (128) 
0.50368292849565832

>  <Cum_SuCOS_Score>  (128) 
2.1066869009336848

>  <TransFSScore_50nM>  (128) 
0.049068000000000001

>  <TransFSScore_1uM>  (128) 
0.37101400000000001

>  <TransFSScore_10nM>  (128) 
0.0092189999999999998

>  <TransFSScore_200nM>  (128) 
0.032761999999999999

>  <TransFSScore>  (128) 
0.11551575

>  <FeatureSteinScore>  (128) 
0.079546071592423551

$$$$
C#CC(C)(C)c1cccc(Oc2ccccc2)c1
     RDKit          3D

 18 19  0  0  0  0  0  0  0  0999 V2000
    9.6653   -1.2923   21.1763 C   0  0  0  0  0  0  0  0  0  0  0  0
    8.7594   -0.5007   21.2614 C   0  0  0  0  0  0  0  0  0  0  0  0
    7.6495    0.4718   21.3656 C   0  0  0  0  0  0  0  0  0  0  0  0
    8.2778    1.8806   21.4773 C   0  0  0  0  0  0  0  0  0  0  0  0
    6.8765    0.2067   22.6779 C   0  0  0  0  0  0  0  0  0  0  0  0
    6.7203    0.3179   20.1457 C   0  0  0  0  0  0  0  0  0  0  0  0
    7.1763   -0.3370   18.9806 C   0  0  0  0  0  0  0  0  0  0  0  0
    6.3545   -0.4682   17.8606 C   0  0  0  0  0  0  0  0  0  0  0  0
    5.0693    0.0657   17.8672 C   0  0  0  0  0  0  0  0  0  0  0  0
    4.5911    0.7311   19.0031 C   0  0  0  0  0  0  0  0  0  0  0  0
    3.3133    1.3096   19.0374 O   0  0  0  0  0  0  0  0  0  0  0  0
    2.7490    1.9721   20.1376 C   0  0  0  0  0  0  0  0  0  0  0  0
    1.4669    1.6002   20.5618 C   0  0  0  0  0  0  0  0  0  0  0  0
    0.8648    2.2479   21.6452 C   0  0  0  0  0  0  0  0  0  0  0  0
    1.5363    3.2814   22.3041 C   0  0  0  0  0  0  0  0  0  0  0  0
    2.8075    3.6731   21.8756 C   0  0  0  0  0  0  0  0  0  0  0  0
    3.4122    3.0269   20.7928 C   0  0  0  0  0  0  0  0  0  0  0  0
    5.4185    0.8681   20.1212 C   0  0  0  0  0  0  0  0  0  0  0  0
  1  2  3  0
  2  3  1  0
  3  4  1  0
  3  5  1  0
  3  6  1  0
  6  7  2  0
  7  8  1  0
  8  9  2  0
  9 10  1  0
 10 11  1  0
 10 18  2  0
 11 12  1  0
 12 13  2  0
 13 14  1  0
 14 15  2  0
 15 16  1  0
 16 17  2  0
 17 12  1  0
 18  6  1  0
M  END
>  <Hit>  (129) 
Mpro-x0967_0

>  <Receptor>  (129) 
Mpro-x0387_0

>  <SCORE>  (129) 
-7.5718399999999999

>  <SCORE.norm>  (129) 
-0.42065799999999998

>  <SCORE.heavy>  (129) 
18

>  <OrigSmiles>  (129) 
C#CC(C)(C)c1cccc(Oc2ccccc2)c1

>  <SuCOS_Score>  (129) 
0.33369180447487284

>  <Max_SuCOS_Score>  (129) 
0.50486267981887578

>  <Cum_SuCOS_Score>  (129) 
3.6555758374459963

>  <TransFSScore_50nM>  (129) 
0.41453899999999999

>  <TransFSScore_1uM>  (129) 
0.68219700000000005

>  <TransFSScore_10nM>  (129) 
0.097180000000000002

>  <TransFSScore_200nM>  (129) 
0.39530199999999999

>  <TransFSScore>  (129) 
0.3973045

>  <FeatureSteinScore>  (129) 
0.40750270545207407

$$$$
C#CC(C)(C)c1ccccc1Oc1ccccc1
     RDKit          3D

 18 19  0  0  0  0  0  0  0  0999 V2000
   10.6375    1.8139   21.5336 C   0  0  0  0  0  0  0  0  0  0  0  0
    9.4353    1.7324   21.5794 C   0  0  0  0  0  0  0  0  0  0  0  0
    7.9604    1.6352   21.6343 C   0  0  0  0  0  0  0  0  0  0  0  0
    7.4141    3.0500   21.9429 C   0  0  0  0  0  0  0  0  0  0  0  0
    7.5760    0.7436   22.8432 C   0  0  0  0  0  0  0  0  0  0  0  0
    7.4446    1.0104   20.3112 C   0  0  0  0  0  0  0  0  0  0  0  0
    6.1801    1.4124   19.8126 C   0  0  0  0  0  0  0  0  0  0  0  0
    5.6562    0.8784   18.6363 C   0  0  0  0  0  0  0  0  0  0  0  0
    6.3624   -0.0877   17.9338 C   0  0  0  0  0  0  0  0  0  0  0  0
    7.5885   -0.5321   18.4103 C   0  0  0  0  0  0  0  0  0  0  0  0
    8.1286   -0.0203   19.6014 C   0  0  0  0  0  0  0  0  0  0  0  0
    9.3579   -0.5227   20.0475 O   0  0  0  0  0  0  0  0  0  0  0  0
    9.5558   -1.2817   21.2110 C   0  0  0  0  0  0  0  0  0  0  0  0
   10.8021   -1.3371   21.8640 C   0  0  0  0  0  0  0  0  0  0  0  0
   10.9601   -2.1204   23.0116 C   0  0  0  0  0  0  0  0  0  0  0  0
    9.8836   -2.8601   23.5086 C   0  0  0  0  0  0  0  0  0  0  0  0
    8.6493   -2.8231   22.8542 C   0  0  0  0  0  0  0  0  0  0  0  0
    8.4884   -2.0409   21.7062 C   0  0  0  0  0  0  0  0  0  0  0  0
  1  2  3  0
  2  3  1  0
  3  4  1  0
  3  5  1  0
  3  6  1  0
  6  7  2  0
  7  8  1  0
  8  9  2  0
  9 10  1  0
 10 11  2  0
 11 12  1  0
 11  6  1  0
 12 13  1  0
 13 14  2  0
 14 15  1  0
 15 16  2  0
 16 17  1  0
 17 18  2  0
 18 13  1  0
M  END
>  <Hit>  (130) 
Mpro-x0967_0

>  <Receptor>  (130) 
Mpro-x0874_0

>  <SCORE>  (130) 
-10.075799999999999

>  <SCORE.norm>  (130) 
-0.55976899999999996

>  <SCORE.heavy>  (130) 
18

>  <OrigSmiles>  (130) 
C#CC(C)(C)c1ccccc1Oc1ccccc1

>  <SuCOS_Score>  (130) 
0.33992991226816649

>  <Max_SuCOS_Score>  (130) 
0.47505198089853673

>  <Cum_SuCOS_Score>  (130) 
4.4542736044208366

>  <TransFSScore_50nM>  (130) 
0.63989200000000002

>  <TransFSScore_1uM>  (130) 
0.56012399999999996

>  <TransFSScore_10nM>  (130) 
0.21604200000000001

>  <TransFSScore_200nM>  (130) 
0.52165600000000001

>  <TransFSScore>  (130) 
0.48442850000000004

>  <FeatureSteinScore>  (130) 
0.2277774964257705

$$$$
C#CC(C)(CC)Nc1nccc(C)c1C#N
     RDKit          3D

 16 16  0  0  0  0  0  0  0  0999 V2000
   10.4121   -0.3703   29.7018 C   0  0  0  0  0  0  0  0  0  0  0  0
    9.9491   -0.5087   28.5968 C   0  0  0  0  0  0  0  0  0  0  0  0
    9.3833   -0.6790   27.2429 C   0  0  2  0  0  0  0  0  0  0  0  0
    8.3819    0.4717   27.0085 C   0  0  0  0  0  0  0  0  0  0  0  0
    8.6402   -2.0395   27.1875 C   0  0  0  0  0  0  0  0  0  0  0  0
    9.5280   -3.2732   27.4146 C   0  0  0  0  0  0  0  0  0  0  0  0
   10.4876   -0.4631   26.2891 N   0  0  0  0  0  0  0  0  0  0  0  0
   10.8302   -1.1008   25.0475 C   0  0  0  0  0  0  0  0  0  0  0  0
    9.8850   -1.9122   24.4958 N   0  0  0  0  0  0  0  0  0  0  0  0
   10.0046   -2.4283   23.2504 C   0  0  0  0  0  0  0  0  0  0  0  0
   11.1594   -2.2020   22.5144 C   0  0  0  0  0  0  0  0  0  0  0  0
   12.1725   -1.4076   23.0474 C   0  0  0  0  0  0  0  0  0  0  0  0
   13.3891   -1.1334   22.1986 C   0  0  0  0  0  0  0  0  0  0  0  0
   11.9389   -0.7225   24.2505 C   0  0  0  0  0  0  0  0  0  0  0  0
   12.4026    0.6471   24.2231 C   0  0  0  0  0  0  0  0  0  0  0  0
   12.7742    1.7414   24.1455 N   0  0  0  0  0  0  0  0  0  0  0  0
  1  2  3  0
  2  3  1  0
  3  4  1  6
  3  5  1  0
  3  7  1  0
  5  6  1  0
  7  8  1  0
  8  9  2  0
  9 10  1  0
 10 11  2  0
 11 12  1  0
 12 13  1  0
 12 14  2  0
 14 15  1  0
 14  8  1  0
 15 16  3  0
M  END
>  <Hit>  (131) 
Mpro-x0305_0

>  <Receptor>  (131) 
Mpro-x0387_0

>  <SCORE>  (131) 
-10.0398

>  <SCORE.norm>  (131) 
-0.62748700000000002

>  <SCORE.heavy>  (131) 
16

>  <OrigSmiles>  (131) 
C#CC(C)(CC)Nc1nccc(C)c1C#N

>  <SuCOS_Score>  (131) 
0.55882116657045688

>  <Max_SuCOS_Score>  (131) 
0.55882116657045688

>  <Cum_SuCOS_Score>  (131) 
4.1923678955912473

>  <TransFSScore_50nM>  (131) 
0.000504

>  <TransFSScore_1uM>  (131) 
0.011317000000000001

>  <TransFSScore_10nM>  (131) 
0.00088599999999999996

>  <TransFSScore_200nM>  (131) 
0.0039430000000000003

>  <TransFSScore>  (131) 
0.0041624999999999995

>  <FeatureSteinScore>  (131) 
0.32284456870599565

$$$$
C#CC(C)(F)C1C2CNC1C2
     RDKit          3D

 11 12  0  0  0  0  0  0  0  0999 V2000
    9.8880   -2.5326   22.6064 C   0  0  0  0  0  0  0  0  0  0  0  0
    9.2269   -3.3192   23.2373 C   0  0  0  0  0  0  0  0  0  0  0  0
    8.4177   -4.2834   24.0079 C   0  0  1  0  0  0  0  0  0  0  0  0
    9.3447   -5.0677   24.9450 C   0  0  0  0  0  0  0  0  0  0  0  0
    7.5589   -3.5506   24.8094 F   0  0  0  0  0  0  0  0  0  0  0  0
    7.5300   -5.0867   23.0031 C   0  0  1  0  0  0  0  0  0  0  0  0
    6.4086   -5.9985   23.5087 C   0  0  2  0  0  0  0  0  0  0  0  0
    6.0064   -6.6305   22.1639 C   0  0  0  0  0  0  0  0  0  0  0  0
    5.9583   -5.4186   21.3062 N   0  0  0  0  0  0  0  0  0  0  0  0
    6.3267   -4.4216   22.3254 C   0  0  1  0  0  0  0  0  0  0  0  0
    5.4309   -4.8331   23.4907 C   0  0  0  0  0  0  0  0  0  0  0  0
  1  2  3  0
  2  3  1  0
  3  4  1  1
  3  5  1  0
  6  3  1  1
  6  7  1  0
  7  8  1  6
  8  9  1  0
  9 10  1  0
 10 11  1  1
 10  6  1  0
 11  7  1  0
M  END
>  <Hit>  (132) 
Mpro-x0991_0

>  <Receptor>  (132) 
Mpro-x0305_0

>  <SCORE>  (132) 
-3.1443599999999998

>  <SCORE.norm>  (132) 
-0.28585100000000002

>  <SCORE.heavy>  (132) 
11

>  <OrigSmiles>  (132) 
C#CC(C)(F)C1C2CNC1C2

>  <SuCOS_Score>  (132) 
0.39677140467379413

>  <Max_SuCOS_Score>  (132) 
0.39677140467379413

>  <Cum_SuCOS_Score>  (132) 
1.6820617848682788

>  <TransFSScore_50nM>  (132) 
0.025010000000000001

>  <TransFSScore_1uM>  (132) 
0.12976399999999999

>  <TransFSScore_10nM>  (132) 
0.0046259999999999999

>  <TransFSScore_200nM>  (132) 
0.40428799999999998

>  <TransFSScore>  (132) 
0.14092199999999999

>  <FeatureSteinScore>  (132) 
0.3008285910823178

$$$$
C#CC(C)(N)c1ccc(Br)cc1Cl
     RDKit          3D

 13 13  0  0  0  0  0  0  0  0999 V2000
    7.0217    4.4945   21.9126 C   0  0  0  0  0  0  0  0  0  0  0  0
    8.0513    4.7961   22.4646 C   0  0  0  0  0  0  0  0  0  0  0  0
    9.3081    5.1633   23.1519 C   0  0  2  0  0  0  0  0  0  0  0  0
    8.9408    5.5068   24.6085 C   0  0  0  0  0  0  0  0  0  0  0  0
    9.8073    6.3549   22.4478 N   0  0  0  0  0  0  0  0  0  0  0  0
   10.3401    4.0059   23.1393 C   0  0  0  0  0  0  0  0  0  0  0  0
    9.9054    2.6560   23.1936 C   0  0  0  0  0  0  0  0  0  0  0  0
   10.8155    1.5960   23.2019 C   0  0  0  0  0  0  0  0  0  0  0  0
   12.1853    1.8495   23.1767 C   0  0  0  0  0  0  0  0  0  0  0  0
   13.4476    0.4051   23.1608 Br  0  0  0  0  0  0  0  0  0  0  0  0
   12.6445    3.1639   23.1608 C   0  0  0  0  0  0  0  0  0  0  0  0
   11.7469    4.2387   23.1523 C   0  0  0  0  0  0  0  0  0  0  0  0
   12.4743    5.8418   23.2059 Cl  0  0  0  0  0  0  0  0  0  0  0  0
  1  2  3  0
  3  2  1  0
  3  4  1  1
  3  5  1  0
  3  6  1  0
  6  7  2  0
  7  8  1  0
  8  9  2  0
  9 10  1  0
  9 11  1  0
 11 12  2  0
 12 13  1  0
 12  6  1  0
M  END
>  <Hit>  (133) 
Mpro-x0946_0

>  <Receptor>  (133) 
Mpro-x0305_0

>  <SCORE>  (133) 
-10.6081

>  <SCORE.norm>  (133) 
-0.81600799999999996

>  <SCORE.heavy>  (133) 
13

>  <OrigSmiles>  (133) 
C#CC(C)(N)c1ccc(Br)cc1Cl

>  <SuCOS_Score>  (133) 
0.49573885474293122

>  <Max_SuCOS_Score>  (133) 
0.49573885474293122

>  <Cum_SuCOS_Score>  (133) 
2.8106589573982679

>  <TransFSScore_50nM>  (133) 
0.0030709999999999999

>  <TransFSScore_1uM>  (133) 
0.020492

>  <TransFSScore_10nM>  (133) 
0.00027

>  <TransFSScore_200nM>  (133) 
0.024247999999999999

>  <TransFSScore>  (133) 
0.01202025

>  <FeatureSteinScore>  (133) 
0.25450369879700491

$$$$
C#CC(C)Cc1ccc(Oc2ccccc2)cc1
     RDKit          3D

 18 19  0  0  0  0  0  0  0  0999 V2000
   11.3817   -2.5977   23.4335 C   0  0  0  0  0  0  0  0  0  0  0  0
   10.4181   -2.0813   22.9252 C   0  0  0  0  0  0  0  0  0  0  0  0
    9.2393   -1.4532   22.3047 C   0  0  2  0  0  0  0  0  0  0  0  0
    8.0728   -2.4472   22.2454 C   0  0  0  0  0  0  0  0  0  0  0  0
    9.5854   -0.8549   20.9254 C   0  0  0  0  0  0  0  0  0  0  0  0
    8.4198   -0.1582   20.2674 C   0  0  0  0  0  0  0  0  0  0  0  0
    8.1399   -0.3599   18.9073 C   0  0  0  0  0  0  0  0  0  0  0  0
    7.0406    0.2671   18.3154 C   0  0  0  0  0  0  0  0  0  0  0  0
    6.2085    1.0953   19.0758 C   0  0  0  0  0  0  0  0  0  0  0  0
    5.0963    1.6849   18.4688 O   0  0  0  0  0  0  0  0  0  0  0  0
    3.8807    1.9797   19.1044 C   0  0  0  0  0  0  0  0  0  0  0  0
    3.3355    1.1423   20.0964 C   0  0  0  0  0  0  0  0  0  0  0  0
    2.1294    1.4810   20.7179 C   0  0  0  0  0  0  0  0  0  0  0  0
    1.4663    2.6593   20.3647 C   0  0  0  0  0  0  0  0  0  0  0  0
    2.0123    3.5043   19.3946 C   0  0  0  0  0  0  0  0  0  0  0  0
    3.2185    3.1682   18.7717 C   0  0  0  0  0  0  0  0  0  0  0  0
    6.4771    1.2831   20.4364 C   0  0  0  0  0  0  0  0  0  0  0  0
    7.5873    0.6820   21.0196 C   0  0  0  0  0  0  0  0  0  0  0  0
  1  2  3  0
  2  3  1  0
  3  4  1  6
  3  5  1  0
  5  6  1  0
  6  7  2  0
  7  8  1  0
  8  9  2  0
  9 10  1  0
  9 17  1  0
 10 11  1  0
 11 12  2  0
 12 13  1  0
 13 14  2  0
 14 15  1  0
 15 16  2  0
 16 11  1  0
 17 18  2  0
 18  6  1  0
M  END
>  <Hit>  (134) 
Mpro-x0967_0

>  <Receptor>  (134) 
Mpro-x0387_0

>  <SCORE>  (134) 
-5.1937199999999999

>  <SCORE.norm>  (134) 
-0.28854000000000002

>  <SCORE.heavy>  (134) 
18

>  <OrigSmiles>  (134) 
C#CC(C)Cc1ccc(Oc2ccccc2)cc1

>  <SuCOS_Score>  (134) 
0.25856050249050772

>  <Max_SuCOS_Score>  (134) 
0.42776423530856195

>  <Cum_SuCOS_Score>  (134) 
3.8225606057797643

>  <TransFSScore_50nM>  (134) 
0.30022300000000002

>  <TransFSScore_1uM>  (134) 
0.81816999999999995

>  <TransFSScore_10nM>  (134) 
0.141876

>  <TransFSScore_200nM>  (134) 
0.76534199999999997

>  <TransFSScore>  (134) 
0.50640275000000001

>  <FeatureSteinScore>  (134) 
0.36314949613841624

$$$$
C#CC(C)N1C2CCC1CNC2
     RDKit          3D

 12 13  0  0  0  0  0  0  0  0999 V2000
    7.4643   -5.6930   27.7177 C   0  0  0  0  0  0  0  0  0  0  0  0
    7.8882   -5.3529   26.6414 C   0  0  0  0  0  0  0  0  0  0  0  0
    8.4081   -4.9351   25.3202 C   0  0  1  0  0  0  0  0  0  0  0  0
    9.8826   -5.3668   25.2361 C   0  0  0  0  0  0  0  0  0  0  0  0
    7.5906   -5.5519   24.2363 N   0  0  0  0  0  0  0  0  0  0  0  0
    7.9420   -5.0999   22.8817 C   0  0  2  0  0  0  0  0  0  0  0  0
    7.2855   -3.7242   22.7001 C   0  0  0  0  0  0  0  0  0  0  0  0
    6.0877   -3.7650   23.6432 C   0  0  0  0  0  0  0  0  0  0  0  0
    6.1730   -5.1581   24.2851 C   0  0  1  0  0  0  0  0  0  0  0  0
    5.3963   -6.1993   23.4444 C   0  0  0  0  0  0  0  0  0  0  0  0
    5.8643   -6.2336   22.0391 N   0  0  0  0  0  0  0  0  0  0  0  0
    7.3362   -6.1334   21.9007 C   0  0  0  0  0  0  0  0  0  0  0  0
  1  2  3  0
  2  3  1  0
  3  4  1  6
  3  5  1  0
  5  6  1  0
  6  7  1  6
  7  8  1  0
  9  8  1  6
  9 10  1  0
  9  5  1  0
 10 11  1  0
 11 12  1  0
 12  6  1  0
M  END
>  <Hit>  (135) 
Mpro-x0991_0

>  <Receptor>  (135) 
Mpro-x0305_0

>  <SCORE>  (135) 
-4.9060600000000001

>  <SCORE.norm>  (135) 
-0.40883900000000001

>  <SCORE.heavy>  (135) 
12

>  <OrigSmiles>  (135) 
C#CC(C)N1C2CCC1CNC2

>  <SuCOS_Score>  (135) 
0.40140073963695705

>  <Max_SuCOS_Score>  (135) 
0.40140073963695705

>  <Cum_SuCOS_Score>  (135) 
1.2347545724640259

>  <TransFSScore_50nM>  (135) 
0.028132000000000001

>  <TransFSScore_1uM>  (135) 
0.063653000000000001

>  <TransFSScore_10nM>  (135) 
0.0085660000000000007

>  <TransFSScore_200nM>  (135) 
0.037134

>  <TransFSScore>  (135) 
0.034371250000000006

>  <FeatureSteinScore>  (135) 
0.30477506980620506

$$$$
C#CC(C)N1[C@H]2CC[C@@H]1CNC2
     RDKit          3D

 12 13  0  0  0  0  0  0  0  0999 V2000
   10.1038   -2.7861   23.9567 C   0  0  0  0  0  0  0  0  0  0  0  0
    9.4588   -3.6879   24.4303 C   0  0  0  0  0  0  0  0  0  0  0  0
    8.6729   -4.7915   25.0100 C   0  0  2  0  0  0  0  0  0  0  0  0
    9.6247   -5.8729   25.5461 C   0  0  0  0  0  0  0  0  0  0  0  0
    7.6817   -5.2484   24.0028 N   0  0  0  0  0  0  0  0  0  0  0  0
    6.4277   -4.5103   23.8674 C   0  0  1  0  0  0  0  0  0  0  0  0
    6.6707   -3.4385   22.7906 C   0  0  0  0  0  0  0  0  0  0  0  0
    7.8177   -4.0032   21.9547 C   0  0  0  0  0  0  0  0  0  0  0  0
    8.1388   -5.3502   22.6197 C   0  0  2  0  0  0  0  0  0  0  0  0
    7.2776   -6.4717   21.9908 C   0  0  0  0  0  0  0  0  0  0  0  0
    5.8242   -6.1714   22.0779 N   0  0  0  0  0  0  0  0  0  0  0  0
    5.3996   -5.5497   23.3599 C   0  0  0  0  0  0  0  0  0  0  0  0
  1  2  3  0
  2  3  1  0
  3  4  1  6
  3  5  1  0
  5  6  1  0
  6  7  1  6
  7  8  1  0
  9  8  1  6
  9 10  1  0
  9  5  1  0
 10 11  1  0
 11 12  1  0
 12  6  1  0
M  END
>  <Hit>  (136) 
Mpro-x0991_0

>  <Receptor>  (136) 
Mpro-x0305_0

>  <SCORE>  (136) 
-5.4752700000000001

>  <SCORE.norm>  (136) 
-0.45627200000000001

>  <SCORE.heavy>  (136) 
12

>  <OrigSmiles>  (136) 
C#CC(C)N1[C@H]2CC[C@@H]1CNC2

>  <SuCOS_Score>  (136) 
0.40308743286027471

>  <Max_SuCOS_Score>  (136) 
0.40308743286027471

>  <Cum_SuCOS_Score>  (136) 
1.6870255884601817

>  <TransFSScore_50nM>  (136) 
0.015618999999999999

>  <TransFSScore_1uM>  (136) 
0.065335000000000004

>  <TransFSScore_10nM>  (136) 
0.0091819999999999992

>  <TransFSScore_200nM>  (136) 
0.115022

>  <TransFSScore>  (136) 
0.051289500000000002

>  <FeatureSteinScore>  (136) 
0.32575987547242319

$$$$
C#CC(C)NC(=O)C12CCC(CC1)N2
     RDKit          3D

 14 15  0  0  0  0  0  0  0  0999 V2000
    9.7185   -5.0551   27.0496 C   0  0  0  0  0  0  0  0  0  0  0  0
    9.4280   -4.6777   25.9418 C   0  0  0  0  0  0  0  0  0  0  0  0
    9.0752   -4.2191   24.5935 C   0  0  1  0  0  0  0  0  0  0  0  0
    8.3689   -5.3420   23.8319 C   0  0  0  0  0  0  0  0  0  0  0  0
    8.2162   -3.0485   24.7063 N   0  0  0  0  0  0  0  0  0  0  0  0
    7.7193   -2.3144   23.5814 C   0  0  0  0  0  0  0  0  0  0  0  0
    8.0779   -2.6244   22.4128 O   0  0  0  0  0  0  0  0  0  0  0  0
    6.7946   -1.1432   23.7871 C   0  0  2  0  0  0  0  0  0  0  0  0
    7.5311    0.1803   24.0881 C   0  0  0  0  0  0  0  0  0  0  0  0
    6.4580    1.2111   23.7096 C   0  0  0  0  0  0  0  0  0  0  0  0
    5.3027    0.2975   23.2561 C   0  0  2  0  0  0  0  0  0  0  0  0
    4.6757   -0.3417   24.5110 C   0  0  0  0  0  0  0  0  0  0  0  0
    5.7428   -1.3786   24.8913 C   0  0  0  0  0  0  0  0  0  0  0  0
    5.9866   -0.8169   22.6187 N   0  0  0  0  0  0  0  0  0  0  0  0
  1  2  3  0
  2  3  1  0
  3  4  1  1
  3  5  1  0
  5  6  1  0
  6  7  2  0
  8  6  1  6
  8  9  1  0
  9 10  1  0
 11 10  1  1
 11 12  1  0
 11 14  1  0
 12 13  1  0
 13  8  1  0
 14  8  1  0
M  END
>  <Hit>  (137) 
Mpro-x0991_0

>  <Receptor>  (137) 
Mpro-x1249_0

>  <SCORE>  (137) 
-1.6490899999999999

>  <SCORE.norm>  (137) 
-0.11779199999999999

>  <SCORE.heavy>  (137) 
14

>  <OrigSmiles>  (137) 
C#CC(C)NC(=O)C12CCC(CC1)N2

>  <SuCOS_Score>  (137) 
0.36494424684742882

>  <Max_SuCOS_Score>  (137) 
0.36494424684742882

>  <Cum_SuCOS_Score>  (137) 
2.0964269256193777

>  <TransFSScore_50nM>  (137) 
0.0083639999999999999

>  <TransFSScore_1uM>  (137) 
0.068181000000000005

>  <TransFSScore_10nM>  (137) 
0.09955

>  <TransFSScore_200nM>  (137) 
0.099454000000000001

>  <TransFSScore>  (137) 
0.068887249999999997

>  <FeatureSteinScore>  (137) 
0.45121862996178913

$$$$
C#CC(C)NC(=O)C1CC2CCC1N2
     RDKit          3D

 14 15  0  0  0  0  0  0  0  0999 V2000
    8.3346   -4.3478   22.6038 C   0  0  0  0  0  0  0  0  0  0  0  0
    8.8878   -4.2791   23.6729 C   0  0  0  0  0  0  0  0  0  0  0  0
    9.5628   -4.1965   24.9792 C   0  0  2  0  0  0  0  0  0  0  0  0
    9.2354   -5.4425   25.8031 C   0  0  0  0  0  0  0  0  0  0  0  0
    9.1199   -2.9989   25.6852 N   0  0  0  0  0  0  0  0  0  0  0  0
    9.7718   -1.7212   25.6687 C   0  0  0  0  0  0  0  0  0  0  0  0
    9.2878   -0.7985   26.3772 O   0  0  0  0  0  0  0  0  0  0  0  0
   10.9475   -1.4413   24.7501 C   0  0  2  0  0  0  0  0  0  0  0  0
   11.4295    0.0250   24.7524 C   0  0  0  0  0  0  0  0  0  0  0  0
   11.2475    0.4043   23.2703 C   0  0  1  0  0  0  0  0  0  0  0  0
   12.3387   -0.2915   22.4425 C   0  0  0  0  0  0  0  0  0  0  0  0
   11.8290   -1.7393   22.4271 C   0  0  0  0  0  0  0  0  0  0  0  0
   10.5477   -1.6158   23.2650 C   0  0  2  0  0  0  0  0  0  0  0  0
   10.0509   -0.3102   22.8650 N   0  0  0  0  0  0  0  0  0  0  0  0
  1  2  3  0
  2  3  1  0
  3  4  1  1
  3  5  1  0
  5  6  1  0
  6  7  2  0
  8  6  1  1
  8  9  1  0
 10  9  1  1
 10 11  1  0
 11 12  1  0
 13 12  1  6
 13 14  1  0
 13  8  1  0
 14 10  1  0
M  END
>  <Hit>  (138) 
Mpro-x0991_0

>  <Receptor>  (138) 
Mpro-x0305_0

>  <SCORE>  (138) 
-4.3838499999999998

>  <SCORE.norm>  (138) 
-0.31313200000000002

>  <SCORE.heavy>  (138) 
14

>  <OrigSmiles>  (138) 
C#CC(C)NC(=O)C1CC2CCC1N2

>  <SuCOS_Score>  (138) 
0.39737889340287286

>  <Max_SuCOS_Score>  (138) 
0.51915525833560139

>  <Cum_SuCOS_Score>  (138) 
4.5152102840620527

>  <TransFSScore_50nM>  (138) 
0.0045960000000000003

>  <TransFSScore_1uM>  (138) 
0.057903000000000003

>  <TransFSScore_10nM>  (138) 
0.027369000000000001

>  <TransFSScore_200nM>  (138) 
0.103783

>  <TransFSScore>  (138) 
0.048412750000000004

>  <FeatureSteinScore>  (138) 
0.55497302068357546

$$$$
C#CC(C)NC(=O)CC12CCC(CC1)N2
     RDKit          3D

 15 16  0  0  0  0  0  0  0  0999 V2000
    7.0726   -2.9109   27.7096 C   0  0  0  0  0  0  0  0  0  0  0  0
    7.3729   -4.0689   27.5590 C   0  0  0  0  0  0  0  0  0  0  0  0
    7.7393   -5.4780   27.3766 C   0  0  2  0  0  0  0  0  0  0  0  0
    7.3160   -6.2800   28.6083 C   0  0  0  0  0  0  0  0  0  0  0  0
    9.1848   -5.5632   27.1873 N   0  0  0  0  0  0  0  0  0  0  0  0
    9.9095   -5.3486   25.9715 C   0  0  0  0  0  0  0  0  0  0  0  0
   11.1624   -5.4704   25.9927 O   0  0  0  0  0  0  0  0  0  0  0  0
    9.2241   -4.8802   24.7100 C   0  0  0  0  0  0  0  0  0  0  0  0
    9.5469   -3.4146   24.3417 C   0  0  1  0  0  0  0  0  0  0  0  0
    9.2239   -3.0200   22.8801 C   0  0  0  0  0  0  0  0  0  0  0  0
   10.1619   -1.8265   22.6775 C   0  0  0  0  0  0  0  0  0  0  0  0
   10.8526   -1.7451   24.0508 C   0  0  1  0  0  0  0  0  0  0  0  0
    9.8574   -1.1721   25.0703 C   0  0  0  0  0  0  0  0  0  0  0  0
    8.9213   -2.3685   25.2865 C   0  0  0  0  0  0  0  0  0  0  0  0
   10.9678   -3.1298   24.4713 N   0  0  0  0  0  0  0  0  0  0  0  0
  1  2  3  0
  2  3  1  0
  3  4  1  1
  3  5  1  0
  5  6  1  0
  6  7  2  0
  6  8  1  0
  9  8  1  1
  9 10  1  0
 10 11  1  0
 12 11  1  6
 12 13  1  0
 12 15  1  0
 13 14  1  0
 14  9  1  0
 15  9  1  0
M  END
>  <Hit>  (139) 
Mpro-x0991_0

>  <Receptor>  (139) 
Mpro-x0305_0

>  <SCORE>  (139) 
-5.1333200000000003

>  <SCORE.norm>  (139) 
-0.34222200000000003

>  <SCORE.heavy>  (139) 
15

>  <OrigSmiles>  (139) 
C#CC(C)NC(=O)CC12CCC(CC1)N2

>  <SuCOS_Score>  (139) 
0.45249647040590785

>  <Max_SuCOS_Score>  (139) 
0.45249647040590785

>  <Cum_SuCOS_Score>  (139) 
2.9745975301289778

>  <TransFSScore_50nM>  (139) 
0.0042519999999999997

>  <TransFSScore_1uM>  (139) 
0.126969

>  <TransFSScore_10nM>  (139) 
0.0046829999999999997

>  <TransFSScore_200nM>  (139) 
0.035349999999999999

>  <TransFSScore>  (139) 
0.042813499999999997

>  <FeatureSteinScore>  (139) 
0.38188511942718373

$$$$
C#CC(C)NC(=O)[C@@H]1C[C@@H]2CC[C@H]1N2
     RDKit          3D

 14 15  0  0  0  0  0  0  0  0999 V2000
    8.8825   -3.7032   23.2539 C   0  0  0  0  0  0  0  0  0  0  0  0
    9.1887   -3.9012   24.4032 C   0  0  0  0  0  0  0  0  0  0  0  0
    9.5667   -4.1438   25.8073 C   0  0  2  0  0  0  0  0  0  0  0  0
   10.0271   -5.5893   25.9699 C   0  0  0  0  0  0  0  0  0  0  0  0
    8.4277   -3.9027   26.6859 N   0  0  0  0  0  0  0  0  0  0  0  0
    8.1576   -2.6985   27.4171 C   0  0  0  0  0  0  0  0  0  0  0  0
    7.0123   -2.5569   27.9229 O   0  0  0  0  0  0  0  0  0  0  0  0
    9.2073   -1.6139   27.5965 C   0  0  2  0  0  0  0  0  0  0  0  0
    8.7915   -0.4444   28.5208 C   0  0  0  0  0  0  0  0  0  0  0  0
    9.0448    0.7704   27.6072 C   0  0  2  0  0  0  0  0  0  0  0  0
    7.9151    0.8305   26.5612 C   0  0  0  0  0  0  0  0  0  0  0  0
    8.3177   -0.3066   25.6128 C   0  0  0  0  0  0  0  0  0  0  0  0
    9.5881   -0.8440   26.3050 C   0  0  1  0  0  0  0  0  0  0  0  0
   10.2028    0.3678   26.8250 N   0  0  0  0  0  0  0  0  0  0  0  0
  1  2  3  0
  2  3  1  0
  3  4  1  6
  3  5  1  0
  5  6  1  0
  6  7  2  0
  8  6  1  6
  8  9  1  0
 10  9  1  1
 10 11  1  0
 11 12  1  0
 13 12  1  1
 13 14  1  0
 13  8  1  0
 14 10  1  0
M  END
>  <Hit>  (140) 
Mpro-x0991_0

>  <Receptor>  (140) 
Mpro-x0305_0

>  <SCORE>  (140) 
-4.3807400000000003

>  <SCORE.norm>  (140) 
-0.31291000000000002

>  <SCORE.heavy>  (140) 
14

>  <OrigSmiles>  (140) 
C#CC(C)NC(=O)[C@@H]1C[C@@H]2CC[C@H]1N2

>  <SuCOS_Score>  (140) 
0.43153220981478929

>  <Max_SuCOS_Score>  (140) 
0.43153220981478929

>  <Cum_SuCOS_Score>  (140) 
2.0882911942003872

>  <TransFSScore_50nM>  (140) 
0.001062

>  <TransFSScore_1uM>  (140) 
0.035312999999999997

>  <TransFSScore_10nM>  (140) 
0.0021519999999999998

>  <TransFSScore_200nM>  (140) 
0.042479000000000003

>  <TransFSScore>  (140) 
0.020251499999999999

>  <FeatureSteinScore>  (140) 
0.28935922201894021

$$$$
C#CC(C)NCc1cc(Cl)cc(Br)c1
     RDKit          3D

 14 14  0  0  0  0  0  0  0  0999 V2000
    8.1833    6.5245   22.1434 C   0  0  0  0  0  0  0  0  0  0  0  0
    9.0531    6.0926   22.8579 C   0  0  0  0  0  0  0  0  0  0  0  0
   10.1173    5.5651   23.7335 C   0  0  2  0  0  0  0  0  0  0  0  0
   10.3024    6.4692   24.9608 C   0  0  0  0  0  0  0  0  0  0  0  0
   11.3776    5.3441   22.9889 N   0  0  0  0  0  0  0  0  0  0  0  0
   12.3893    4.5651   23.7291 C   0  0  0  0  0  0  0  0  0  0  0  0
   12.0033    3.1084   23.7706 C   0  0  0  0  0  0  0  0  0  0  0  0
   10.9132    2.6889   24.5495 C   0  0  0  0  0  0  0  0  0  0  0  0
   10.5837    1.3299   24.6197 C   0  0  0  0  0  0  0  0  0  0  0  0
    9.2210    0.8090   25.5935 Cl  0  0  0  0  0  0  0  0  0  0  0  0
   11.3410    0.3850   23.9149 C   0  0  0  0  0  0  0  0  0  0  0  0
   12.4306    0.7993   23.1392 C   0  0  0  0  0  0  0  0  0  0  0  0
   13.4594   -0.4755   22.1405 Br  0  0  0  0  0  0  0  0  0  0  0  0
   12.7663    2.1553   23.0767 C   0  0  0  0  0  0  0  0  0  0  0  0
  1  2  3  0
  2  3  1  0
  3  4  1  1
  3  5  1  0
  5  6  1  0
  6  7  1  0
  7  8  2  0
  8  9  1  0
  9 10  1  0
  9 11  2  0
 11 12  1  0
 12 13  1  0
 12 14  2  0
 14  7  1  0
M  END
>  <Hit>  (141) 
Mpro-x0946_0

>  <Receptor>  (141) 
Mpro-x1249_0

>  <SCORE>  (141) 
-11.231299999999999

>  <SCORE.norm>  (141) 
-0.80223299999999997

>  <SCORE.heavy>  (141) 
14

>  <OrigSmiles>  (141) 
C#CC(C)NCc1cc(Cl)cc(Br)c1

>  <SuCOS_Score>  (141) 
0.60614724102377893

>  <Max_SuCOS_Score>  (141) 
0.60614724102377893

>  <Cum_SuCOS_Score>  (141) 
4.0181542030089545

>  <TransFSScore_50nM>  (141) 
0.00056700000000000001

>  <TransFSScore_1uM>  (141) 
0.0084139999999999996

>  <TransFSScore_10nM>  (141) 
0.00020900000000000001

>  <TransFSScore_200nM>  (141) 
0.002722

>  <TransFSScore>  (141) 
0.0029780000000000002

>  <FeatureSteinScore>  (141) 
0.59576412163833758

$$$$
C#CC(C)Nc1cc(Cl)cc(Br)c1
     RDKit          3D

 13 13  0  0  0  0  0  0  0  0999 V2000
   14.2244    5.4356   21.7470 C   0  0  0  0  0  0  0  0  0  0  0  0
   13.2833    4.8124   22.1709 C   0  0  0  0  0  0  0  0  0  0  0  0
   12.1328    4.0458   22.6898 C   0  0  2  0  0  0  0  0  0  0  0  0
   11.0868    5.0210   23.2410 C   0  0  0  0  0  0  0  0  0  0  0  0
   12.5563    3.0950   23.7386 N   0  0  0  0  0  0  0  0  0  0  0  0
   12.1400    1.7467   23.4257 C   0  0  0  0  0  0  0  0  0  0  0  0
   10.8245    1.3306   23.6963 C   0  0  0  0  0  0  0  0  0  0  0  0
   10.4170    0.0313   23.3727 C   0  0  0  0  0  0  0  0  0  0  0  0
    8.7754   -0.4823   23.7166 Cl  0  0  0  0  0  0  0  0  0  0  0  0
   11.3150   -0.8575   22.7678 C   0  0  0  0  0  0  0  0  0  0  0  0
   12.6230   -0.4466   22.4850 C   0  0  0  0  0  0  0  0  0  0  0  0
   13.8548   -1.6354   21.6191 Br  0  0  0  0  0  0  0  0  0  0  0  0
   13.0341    0.8479   22.8164 C   0  0  0  0  0  0  0  0  0  0  0  0
  1  2  3  0
  2  3  1  0
  3  4  1  1
  3  5  1  0
  5  6  1  0
  6  7  2  0
  7  8  1  0
  8  9  1  0
  8 10  2  0
 10 11  1  0
 11 12  1  0
 11 13  2  0
 13  6  1  0
M  END
>  <Hit>  (142) 
Mpro-x0946_0

>  <Receptor>  (142) 
Mpro-x0305_0

>  <SCORE>  (142) 
-15.144600000000001

>  <SCORE.norm>  (142) 
-1.1649700000000001

>  <SCORE.heavy>  (142) 
13

>  <OrigSmiles>  (142) 
C#CC(C)Nc1cc(Cl)cc(Br)c1

>  <SuCOS_Score>  (142) 
0.34948100603670978

>  <Max_SuCOS_Score>  (142) 
0.43821140210006393

>  <Cum_SuCOS_Score>  (142) 
4.6539031634332364

>  <TransFSScore_50nM>  (142) 
0.01341

>  <TransFSScore_1uM>  (142) 
0.053761000000000003

>  <TransFSScore_10nM>  (142) 
0.001194

>  <TransFSScore_200nM>  (142) 
0.0040969999999999999

>  <TransFSScore>  (142) 
0.018115500000000003

>  <FeatureSteinScore>  (142) 
0.48262102123591788

$$$$
C#CC(C)Nc1ccccc1Oc1ccccc1
     RDKit          3D

 18 19  0  0  0  0  0  0  0  0999 V2000
    5.5116   -2.3916   20.2852 C   0  0  0  0  0  0  0  0  0  0  0  0
    6.1939   -1.8060   21.0884 C   0  0  0  0  0  0  0  0  0  0  0  0
    7.0303   -1.0882   22.0708 C   0  0  2  0  0  0  0  0  0  0  0  0
    7.5678   -2.0911   23.0979 C   0  0  0  0  0  0  0  0  0  0  0  0
    6.2627   -0.0199   22.7443 N   0  0  0  0  0  0  0  0  0  0  0  0
    7.0044    1.2230   22.7779 C   0  0  0  0  0  0  0  0  0  0  0  0
    7.9828    1.4214   23.7707 C   0  0  0  0  0  0  0  0  0  0  0  0
    8.7475    2.5902   23.7928 C   0  0  0  0  0  0  0  0  0  0  0  0
    8.5540    3.5714   22.8198 C   0  0  0  0  0  0  0  0  0  0  0  0
    7.5925    3.3888   21.8244 C   0  0  0  0  0  0  0  0  0  0  0  0
    6.8096    2.2283   21.7995 C   0  0  0  0  0  0  0  0  0  0  0  0
    5.8591    2.0824   20.7836 O   0  0  0  0  0  0  0  0  0  0  0  0
    5.9673    1.1717   19.7279 C   0  0  0  0  0  0  0  0  0  0  0  0
    7.2402    0.7383   19.3393 C   0  0  0  0  0  0  0  0  0  0  0  0
    7.3835   -0.1642   18.2820 C   0  0  0  0  0  0  0  0  0  0  0  0
    6.2558   -0.6385   17.6086 C   0  0  0  0  0  0  0  0  0  0  0  0
    4.9842   -0.2094   17.9927 C   0  0  0  0  0  0  0  0  0  0  0  0
    4.8367    0.6924   19.0467 C   0  0  0  0  0  0  0  0  0  0  0  0
  1  2  3  0
  2  3  1  0
  3  4  1  1
  3  5  1  0
  5  6  1  0
  6  7  2  0
  7  8  1  0
  8  9  2  0
  9 10  1  0
 10 11  2  0
 11 12  1  0
 11  6  1  0
 12 13  1  0
 13 14  2  0
 14 15  1  0
 15 16  2  0
 16 17  1  0
 17 18  2  0
 18 13  1  0
M  END
>  <Hit>  (143) 
Mpro-x0967_0

>  <Receptor>  (143) 
Mpro-x0387_0

>  <SCORE>  (143) 
-10.1432

>  <SCORE.norm>  (143) 
-0.56351399999999996

>  <SCORE.heavy>  (143) 
18

>  <OrigSmiles>  (143) 
C#CC(C)Nc1ccccc1Oc1ccccc1

>  <SuCOS_Score>  (143) 
0.29929983585192765

>  <Max_SuCOS_Score>  (143) 
0.45848583521250508

>  <Cum_SuCOS_Score>  (143) 
3.4247246466981158

>  <TransFSScore_50nM>  (143) 
0.0058500000000000002

>  <TransFSScore_1uM>  (143) 
0.019994999999999999

>  <TransFSScore_10nM>  (143) 
0.0053400000000000001

>  <TransFSScore_200nM>  (143) 
0.037513999999999999

>  <TransFSScore>  (143) 
0.017174749999999999

>  <FeatureSteinScore>  (143) 
0.19784527587802272

$$$$
C#CC(C)Nc1ncc(C#N)cc1Cl
     RDKit          3D

 14 14  0  0  0  0  0  0  0  0999 V2000
    8.7346   -1.8478   26.2904 C   0  0  0  0  0  0  0  0  0  0  0  0
    9.2007   -0.8320   25.8381 C   0  0  0  0  0  0  0  0  0  0  0  0
    9.7722    0.4132   25.2828 C   0  0  2  0  0  0  0  0  0  0  0  0
    8.8585    0.9385   24.1773 C   0  0  0  0  0  0  0  0  0  0  0  0
   11.2026    0.1715   25.0140 N   0  0  0  0  0  0  0  0  0  0  0  0
   11.7646    0.0467   23.6886 C   0  0  0  0  0  0  0  0  0  0  0  0
   13.0047    0.5978   23.4817 N   0  0  0  0  0  0  0  0  0  0  0  0
   13.8124    0.2166   22.4576 C   0  0  0  0  0  0  0  0  0  0  0  0
   13.3582   -0.6959   21.5089 C   0  0  0  0  0  0  0  0  0  0  0  0
   14.2141   -1.1343   20.4302 C   0  0  0  0  0  0  0  0  0  0  0  0
   14.8972   -1.4863   19.5642 N   0  0  0  0  0  0  0  0  0  0  0  0
   12.0885   -1.2360   21.6519 C   0  0  0  0  0  0  0  0  0  0  0  0
   11.3466   -0.9770   22.7976 C   0  0  0  0  0  0  0  0  0  0  0  0
   10.4612   -2.4111   23.3124 Cl  0  0  0  0  0  0  0  0  0  0  0  0
  1  2  3  0
  2  3  1  0
  3  4  1  6
  3  5  1  0
  5  6  1  0
  6  7  2  0
  7  8  1  0
  8  9  2  0
  9 10  1  0
  9 12  1  0
 10 11  3  0
 12 13  2  0
 13 14  1  0
 13  6  1  0
M  END
>  <Hit>  (144) 
Mpro-x0305_0

>  <Receptor>  (144) 
Mpro-x0874_0

>  <SCORE>  (144) 
-14.5746

>  <SCORE.norm>  (144) 
-1.04104

>  <SCORE.heavy>  (144) 
14

>  <OrigSmiles>  (144) 
C#CC(C)Nc1ncc(C#N)cc1Cl

>  <SuCOS_Score>  (144) 
0.50582547409662471

>  <Max_SuCOS_Score>  (144) 
0.50582547409662471

>  <Cum_SuCOS_Score>  (144) 
4.5681457705518858

>  <TransFSScore_50nM>  (144) 
0.017316000000000002

>  <TransFSScore_1uM>  (144) 
0.35227900000000001

>  <TransFSScore_10nM>  (144) 
0.0077070000000000003

>  <TransFSScore_200nM>  (144) 
0.26242100000000002

>  <TransFSScore>  (144) 
0.15993075000000001

>  <FeatureSteinScore>  (144) 
0.42464118525044597

$$$$
C#CC(C)Nc1nccc(C)c1C#N
     RDKit          3D

 14 14  0  0  0  0  0  0  0  0999 V2000
    8.5823   -2.4744   25.8239 C   0  0  0  0  0  0  0  0  0  0  0  0
    8.9584   -2.2985   24.6918 C   0  0  0  0  0  0  0  0  0  0  0  0
    9.4171   -2.0811   23.3102 C   0  0  2  0  0  0  0  0  0  0  0  0
    8.5132   -2.9690   22.4253 C   0  0  0  0  0  0  0  0  0  0  0  0
   10.8517   -2.4395   23.1992 N   0  0  0  0  0  0  0  0  0  0  0  0
   11.7980   -1.3855   22.8700 C   0  0  0  0  0  0  0  0  0  0  0  0
   12.9053   -1.7315   22.1468 N   0  0  0  0  0  0  0  0  0  0  0  0
   13.8979   -0.8514   21.8718 C   0  0  0  0  0  0  0  0  0  0  0  0
   13.8041    0.4673   22.2935 C   0  0  0  0  0  0  0  0  0  0  0  0
   12.7000    0.8797   23.0399 C   0  0  0  0  0  0  0  0  0  0  0  0
   12.6535    2.3012   23.5429 C   0  0  0  0  0  0  0  0  0  0  0  0
   11.7233   -0.0677   23.4055 C   0  0  0  0  0  0  0  0  0  0  0  0
   10.8016    0.2871   24.4644 C   0  0  0  0  0  0  0  0  0  0  0  0
   10.0753    0.5858   25.3150 N   0  0  0  0  0  0  0  0  0  0  0  0
  1  2  3  0
  2  3  1  0
  3  4  1  6
  3  5  1  0
  5  6  1  0
  6  7  2  0
  7  8  1  0
  8  9  2  0
  9 10  1  0
 10 11  1  0
 10 12  2  0
 12 13  1  0
 12  6  1  0
 13 14  3  0
M  END
>  <Hit>  (145) 
Mpro-x0305_0

>  <Receptor>  (145) 
Mpro-x0874_0

>  <SCORE>  (145) 
-11.9909

>  <SCORE.norm>  (145) 
-0.85648999999999997

>  <SCORE.heavy>  (145) 
14

>  <OrigSmiles>  (145) 
C#CC(C)Nc1nccc(C)c1C#N

>  <SuCOS_Score>  (145) 
0.36066296808420284

>  <Max_SuCOS_Score>  (145) 
0.41818048890183224

>  <Cum_SuCOS_Score>  (145) 
5.0245061950830969

>  <TransFSScore_50nM>  (145) 
0.00072300000000000001

>  <TransFSScore_1uM>  (145) 
0.021263000000000001

>  <TransFSScore_10nM>  (145) 
0.00074700000000000005

>  <TransFSScore_200nM>  (145) 
0.0049350000000000002

>  <TransFSScore>  (145) 
0.0069170000000000013

>  <FeatureSteinScore>  (145) 
0.43049144866884226

$$$$
C#CC(C)OC(=O)C12CCC(CC1)N2
     RDKit          3D

 14 15  0  0  0  0  0  0  0  0999 V2000
   11.4535   -2.6273   23.4335 C   0  0  0  0  0  0  0  0  0  0  0  0
   10.5286   -3.2204   23.9297 C   0  0  0  0  0  0  0  0  0  0  0  0
    9.3970   -3.9439   24.5388 C   0  0  2  0  0  0  0  0  0  0  0  0
    9.9011   -4.8680   25.6435 C   0  0  0  0  0  0  0  0  0  0  0  0
    8.7255   -4.7203   23.5483 O   0  0  0  0  0  0  0  0  0  0  0  0
    7.8289   -4.1768   22.6200 C   0  0  0  0  0  0  0  0  0  0  0  0
    7.2162   -4.9228   21.8077 O   0  0  0  0  0  0  0  0  0  0  0  0
    7.6316   -2.6883   22.5565 C   0  0  2  0  0  0  0  0  0  0  0  0
    8.8271   -1.9192   21.9544 C   0  0  0  0  0  0  0  0  0  0  0  0
    8.1497   -0.6157   21.5202 C   0  0  0  0  0  0  0  0  0  0  0  0
    6.6905   -0.8747   21.9431 C   0  0  2  0  0  0  0  0  0  0  0  0
    6.5952   -0.7606   23.4720 C   0  0  0  0  0  0  0  0  0  0  0  0
    7.2699   -2.0656   23.9160 C   0  0  0  0  0  0  0  0  0  0  0  0
    6.5047   -2.2987   21.7243 N   0  0  0  0  0  0  0  0  0  0  0  0
  1  2  3  0
  2  3  1  0
  3  4  1  1
  3  5  1  0
  5  6  1  0
  6  7  2  0
  8  6  1  1
  8  9  1  0
  9 10  1  0
 11 10  1  1
 11 12  1  0
 11 14  1  0
 12 13  1  0
 13  8  1  0
 14  8  1  0
M  END
>  <Hit>  (146) 
Mpro-x0991_0

>  <Receptor>  (146) 
Mpro-x0305_0

>  <SCORE>  (146) 
-0.42116199999999998

>  <SCORE.norm>  (146) 
-0.030082999999999999

>  <SCORE.heavy>  (146) 
14

>  <OrigSmiles>  (146) 
C#CC(C)OC(=O)C12CCC(CC1)N2

>  <SuCOS_Score>  (146) 
0.32958199356913187

>  <Max_SuCOS_Score>  (146) 
0.32958199356913187

>  <Cum_SuCOS_Score>  (146) 
2.6498569129433789

>  <TransFSScore_50nM>  (146) 
0.090823000000000001

>  <TransFSScore_1uM>  (146) 
0.29253200000000001

>  <TransFSScore_10nM>  (146) 
0.14923

>  <TransFSScore_200nM>  (146) 
0.51824099999999995

>  <TransFSScore>  (146) 
0.26270649999999995

>  <FeatureSteinScore>  (146) 
0.17205669242974855

$$$$
C#CC(C)OC(=O)C1C2CNC1C2
     RDKit          3D

 13 14  0  0  0  0  0  0  0  0999 V2000
   10.8862   -2.5402   23.3995 C   0  0  0  0  0  0  0  0  0  0  0  0
   10.0506   -3.2652   23.8789 C   0  0  0  0  0  0  0  0  0  0  0  0
    9.0320   -4.1511   24.4641 C   0  0  2  0  0  0  0  0  0  0  0  0
    9.6811   -5.0927   25.4801 C   0  0  0  0  0  0  0  0  0  0  0  0
    8.4198   -4.8980   23.4147 O   0  0  0  0  0  0  0  0  0  0  0  0
    7.6513   -4.3171   22.3990 C   0  0  0  0  0  0  0  0  0  0  0  0
    7.0787   -5.0339   21.5337 O   0  0  0  0  0  0  0  0  0  0  0  0
    7.5456   -2.8153   22.3101 C   0  0  1  0  0  0  0  0  0  0  0  0
    6.3723   -2.3028   21.4768 C   0  0  2  0  0  0  0  0  0  0  0  0
    6.5973   -0.7984   21.6475 C   0  0  0  0  0  0  0  0  0  0  0  0
    6.8732   -0.7287   23.0990 N   0  0  0  0  0  0  0  0  0  0  0  0
    6.7116   -2.1564   23.4067 C   0  0  1  0  0  0  0  0  0  0  0  0
    5.4388   -2.5361   22.6544 C   0  0  0  0  0  0  0  0  0  0  0  0
  1  2  3  0
  2  3  1  0
  3  4  1  1
  3  5  1  0
  5  6  1  0
  6  7  2  0
  8  6  1  1
  8  9  1  0
  9 10  1  1
 10 11  1  0
 11 12  1  0
 12 13  1  6
 12  8  1  0
 13  9  1  0
M  END
>  <Hit>  (147) 
Mpro-x0991_0

>  <Receptor>  (147) 
Mpro-x0305_0

>  <SCORE>  (147) 
-2.1492399999999998

>  <SCORE.norm>  (147) 
-0.165326

>  <SCORE.heavy>  (147) 
13

>  <OrigSmiles>  (147) 
C#CC(C)OC(=O)C1C2CNC1C2

>  <SuCOS_Score>  (147) 
0.350322157389796

>  <Max_SuCOS_Score>  (147) 
0.350322157389796

>  <Cum_SuCOS_Score>  (147) 
2.2672420892466763

>  <TransFSScore_50nM>  (147) 
0.089985999999999997

>  <TransFSScore_1uM>  (147) 
0.17046

>  <TransFSScore_10nM>  (147) 
0.013181999999999999

>  <TransFSScore_200nM>  (147) 
0.38835799999999998

>  <TransFSScore>  (147) 
0.16549649999999999

>  <FeatureSteinScore>  (147) 
0.10433876097844261

$$$$
C#CC(C)OC(=O)C1CC2CCC1N2
     RDKit          3D

 14 15  0  0  0  0  0  0  0  0999 V2000
   11.0578   -2.7154   23.4961 C   0  0  0  0  0  0  0  0  0  0  0  0
   10.2820   -3.4760   24.0186 C   0  0  0  0  0  0  0  0  0  0  0  0
    9.3311   -4.4050   24.6569 C   0  0  2  0  0  0  0  0  0  0  0  0
   10.0863   -5.4325   25.4949 C   0  0  0  0  0  0  0  0  0  0  0  0
    8.5698   -5.0838   23.6602 O   0  0  0  0  0  0  0  0  0  0  0  0
    7.8145   -4.4246   22.6816 C   0  0  0  0  0  0  0  0  0  0  0  0
    7.0475   -5.0769   21.9218 O   0  0  0  0  0  0  0  0  0  0  0  0
    7.9393   -2.9348   22.4931 C   0  0  2  0  0  0  0  0  0  0  0  0
    7.4436   -2.1508   23.7251 C   0  0  0  0  0  0  0  0  0  0  0  0
    6.3590   -1.2524   23.0995 C   0  0  1  0  0  0  0  0  0  0  0  0
    7.0539   -0.1611   22.2617 C   0  0  0  0  0  0  0  0  0  0  0  0
    7.4983   -0.9611   21.0281 C   0  0  0  0  0  0  0  0  0  0  0  0
    7.0039   -2.3752   21.3899 C   0  0  2  0  0  0  0  0  0  0  0  0
    5.7566   -2.1107   22.0936 N   0  0  0  0  0  0  0  0  0  0  0  0
  1  2  3  0
  2  3  1  0
  3  4  1  6
  3  5  1  0
  5  6  1  0
  6  7  2  0
  8  6  1  1
  8  9  1  0
 10  9  1  6
 10 11  1  0
 11 12  1  0
 13 12  1  1
 13 14  1  0
 13  8  1  0
 14 10  1  0
M  END
>  <Hit>  (148) 
Mpro-x0991_0

>  <Receptor>  (148) 
Mpro-x0874_0

>  <SCORE>  (148) 
-1.8546899999999999

>  <SCORE.norm>  (148) 
-0.13247800000000001

>  <SCORE.heavy>  (148) 
14

>  <OrigSmiles>  (148) 
C#CC(C)OC(=O)C1CC2CCC1N2

>  <SuCOS_Score>  (148) 
0.36917964861331143

>  <Max_SuCOS_Score>  (148) 
0.36917964861331143

>  <Cum_SuCOS_Score>  (148) 
2.4675910905251035

>  <TransFSScore_50nM>  (148) 
0.065185999999999994

>  <TransFSScore_1uM>  (148) 
0.210701

>  <TransFSScore_10nM>  (148) 
0.015913

>  <TransFSScore_200nM>  (148) 
0.46297500000000003

>  <TransFSScore>  (148) 
0.18869374999999999

>  <FeatureSteinScore>  (148) 
0.13663415430632683

$$$$
C#CC(C)OC(=O)CC12CCC(CC1)N2
     RDKit          3D

 15 16  0  0  0  0  0  0  0  0999 V2000
   10.5606   -2.0599   22.0552 C   0  0  0  0  0  0  0  0  0  0  0  0
    9.7551   -2.6433   22.7366 C   0  0  0  0  0  0  0  0  0  0  0  0
    8.7711   -3.3560   23.5663 C   0  0  1  0  0  0  0  0  0  0  0  0
    9.4777   -4.0583   24.7271 C   0  0  0  0  0  0  0  0  0  0  0  0
    7.8220   -2.4129   24.0597 O   0  0  0  0  0  0  0  0  0  0  0  0
    6.8214   -1.8375   23.2682 C   0  0  0  0  0  0  0  0  0  0  0  0
    6.1030   -0.9020   23.7152 O   0  0  0  0  0  0  0  0  0  0  0  0
    6.5818   -2.3644   21.8856 C   0  0  0  0  0  0  0  0  0  0  0  0
    6.5378   -1.2530   20.8147 C   0  0  2  0  0  0  0  0  0  0  0  0
    5.7563   -1.6071   19.5267 C   0  0  0  0  0  0  0  0  0  0  0  0
    5.4595   -0.2114   18.9691 C   0  0  0  0  0  0  0  0  0  0  0  0
    6.1205    0.6905   20.0298 C   0  0  2  0  0  0  0  0  0  0  0  0
    7.6425    0.6207   19.8487 C   0  0  0  0  0  0  0  0  0  0  0  0
    7.9470   -0.7751   20.4060 C   0  0  0  0  0  0  0  0  0  0  0  0
    5.9196   -0.0209   21.2811 N   0  0  0  0  0  0  0  0  0  0  0  0
  1  2  3  0
  2  3  1  0
  3  4  1  1
  3  5  1  0
  5  6  1  0
  6  7  2  0
  6  8  1  0
  9  8  1  1
  9 10  1  0
 10 11  1  0
 12 11  1  6
 12 13  1  0
 12 15  1  0
 13 14  1  0
 14  9  1  0
 15  9  1  0
M  END
>  <Hit>  (149) 
Mpro-x0991_0

>  <Receptor>  (149) 
Mpro-x0874_0

>  <SCORE>  (149) 
-3.4321199999999998

>  <SCORE.norm>  (149) 
-0.22880800000000001

>  <SCORE.heavy>  (149) 
15

>  <OrigSmiles>  (149) 
C#CC(C)OC(=O)CC12CCC(CC1)N2

>  <SuCOS_Score>  (149) 
0.22451716738197425

>  <Max_SuCOS_Score>  (149) 
0.2897240393793063

>  <Cum_SuCOS_Score>  (149) 
3.1768097686088179

>  <TransFSScore_50nM>  (149) 
0.028384

>  <TransFSScore_1uM>  (149) 
0.311834

>  <TransFSScore_10nM>  (149) 
0.088568999999999995

>  <TransFSScore_200nM>  (149) 
0.38116899999999998

>  <TransFSScore>  (149) 
0.202489

>  <FeatureSteinScore>  (149) 
0.16611239905319369

$$$$
C#CC(C)OC(=O)[C@@H]1C[C@@H]2CC[C@H]1N2
     RDKit          3D

 14 15  0  0  0  0  0  0  0  0999 V2000
   10.6464   -2.4398   23.2293 C   0  0  0  0  0  0  0  0  0  0  0  0
    9.9863   -3.2746   23.7957 C   0  0  0  0  0  0  0  0  0  0  0  0
    9.1766   -4.2948   24.4871 C   0  0  1  0  0  0  0  0  0  0  0  0
    9.9519   -4.8644   25.6714 C   0  0  0  0  0  0  0  0  0  0  0  0
    7.9627   -3.7151   24.9596 O   0  0  0  0  0  0  0  0  0  0  0  0
    7.9166   -2.6189   25.8309 C   0  0  0  0  0  0  0  0  0  0  0  0
    6.8273   -2.2750   26.3657 O   0  0  0  0  0  0  0  0  0  0  0  0
    9.1767   -1.8712   26.1855 C   0  0  2  0  0  0  0  0  0  0  0  0
    9.2304   -1.3265   27.6286 C   0  0  0  0  0  0  0  0  0  0  0  0
    9.5331    0.1643   27.3758 C   0  0  2  0  0  0  0  0  0  0  0  0
    8.2390    0.8401   26.8839 C   0  0  0  0  0  0  0  0  0  0  0  0
    8.1649    0.3359   25.4367 C   0  0  0  0  0  0  0  0  0  0  0  0
    9.4094   -0.5761   25.3671 C   0  0  1  0  0  0  0  0  0  0  0  0
   10.3726    0.1434   26.1865 N   0  0  0  0  0  0  0  0  0  0  0  0
  1  2  3  0
  2  3  1  0
  3  4  1  1
  3  5  1  0
  5  6  1  0
  6  7  2  0
  8  6  1  6
  8  9  1  0
 10  9  1  6
 10 11  1  0
 11 12  1  0
 13 12  1  1
 13 14  1  0
 13  8  1  0
 14 10  1  0
M  END
>  <Hit>  (150) 
Mpro-x0991_0

>  <Receptor>  (150) 
Mpro-x0305_0

>  <SCORE>  (150) 
-1.7765

>  <SCORE.norm>  (150) 
-0.12689300000000001

>  <SCORE.heavy>  (150) 
14

>  <OrigSmiles>  (150) 
C#CC(C)OC(=O)[C@@H]1C[C@@H]2CC[C@H]1N2

>  <SuCOS_Score>  (150) 
0.28253342833403278

>  <Max_SuCOS_Score>  (150) 
0.3345000175087513

>  <Cum_SuCOS_Score>  (150) 
2.6169956716861043

>  <TransFSScore_50nM>  (150) 
0.24244499999999999

>  <TransFSScore_1uM>  (150) 
0.32152399999999998

>  <TransFSScore_10nM>  (150) 
0.015252

>  <TransFSScore_200nM>  (150) 
0.25581500000000001

>  <TransFSScore>  (150) 
0.208759

>  <FeatureSteinScore>  (150) 
0.26332481354527587

$$$$
C#CC(C)c1ccc(Br)cc1Cl
     RDKit          3D

 12 12  0  0  0  0  0  0  0  0999 V2000
    7.2848    6.9807   21.5436 C   0  0  0  0  0  0  0  0  0  0  0  0
    8.0647    6.6740   22.4105 C   0  0  0  0  0  0  0  0  0  0  0  0
    9.0181    6.2994   23.4690 C   0  0  1  0  0  0  0  0  0  0  0  0
    8.3810    6.4873   24.8474 C   0  0  0  0  0  0  0  0  0  0  0  0
    9.4947    4.8663   23.2892 C   0  0  0  0  0  0  0  0  0  0  0  0
    8.5555    3.8129   23.2896 C   0  0  0  0  0  0  0  0  0  0  0  0
    8.9672    2.4839   23.1513 C   0  0  0  0  0  0  0  0  0  0  0  0
   10.3251    2.1823   23.0214 C   0  0  0  0  0  0  0  0  0  0  0  0
   10.9062    0.3676   22.7986 Br  0  0  0  0  0  0  0  0  0  0  0  0
   11.2698    3.2097   23.0428 C   0  0  0  0  0  0  0  0  0  0  0  0
   10.8692    4.5446   23.1796 C   0  0  0  0  0  0  0  0  0  0  0  0
   12.1330    5.7712   23.2255 Cl  0  0  0  0  0  0  0  0  0  0  0  0
  1  2  3  0
  2  3  1  0
  3  4  1  1
  3  5  1  0
  5  6  2  0
  6  7  1  0
  7  8  2  0
  8  9  1  0
  8 10  1  0
 10 11  2  0
 11 12  1  0
 11  5  1  0
M  END
>  <Hit>  (151) 
Mpro-x0946_0

>  <Receptor>  (151) 
Mpro-x0387_0

>  <SCORE>  (151) 
-5.0358099999999997

>  <SCORE.norm>  (151) 
-0.41965000000000002

>  <SCORE.heavy>  (151) 
12

>  <OrigSmiles>  (151) 
C#CC(C)c1ccc(Br)cc1Cl

>  <SuCOS_Score>  (151) 
0.27693068331974274

>  <Max_SuCOS_Score>  (151) 
0.27693068331974274

>  <Cum_SuCOS_Score>  (151) 
2.0862635378576009

>  <TransFSScore_50nM>  (151) 
0.042590000000000003

>  <TransFSScore_1uM>  (151) 
0.019089999999999999

>  <TransFSScore_10nM>  (151) 
0.0021540000000000001

>  <TransFSScore_200nM>  (151) 
0.063961000000000004

>  <TransFSScore>  (151) 
0.031948749999999998

>  <FeatureSteinScore>  (151) 
0.026590110228245988

$$$$
C#CC(C)c1ccc(Cl)c(S(N)(=O)=O)c1
     RDKit          3D

 15 15  0  0  0  0  0  0  0  0999 V2000
   12.6638   -1.0935   21.4303 C   0  0  0  0  0  0  0  0  0  0  0  0
   11.9109   -0.5077   22.1677 C   0  0  0  0  0  0  0  0  0  0  0  0
   10.9915    0.2079   23.0672 C   0  0  1  0  0  0  0  0  0  0  0  0
   10.8923   -0.5140   24.4132 C   0  0  0  0  0  0  0  0  0  0  0  0
   11.4374    1.6436   23.2522 C   0  0  0  0  0  0  0  0  0  0  0  0
   12.7979    1.9899   23.2136 C   0  0  0  0  0  0  0  0  0  0  0  0
   13.1998    3.3100   23.3994 C   0  0  0  0  0  0  0  0  0  0  0  0
   12.2613    4.3128   23.6235 C   0  0  0  0  0  0  0  0  0  0  0  0
   12.9033    5.9434   23.8035 Cl  0  0  0  0  0  0  0  0  0  0  0  0
   10.8908    3.9823   23.6742 C   0  0  0  0  0  0  0  0  0  0  0  0
    9.6437    5.1865   23.8636 S   0  0  0  0  0  0  0  0  0  0  0  0
    9.9269    6.3922   22.6778 N   0  0  0  0  0  0  0  0  0  0  0  0
    8.3036    4.5615   23.6264 O   0  0  0  0  0  0  0  0  0  0  0  0
    9.6842    5.8169   25.2208 O   0  0  0  0  0  0  0  0  0  0  0  0
   10.4896    2.6504   23.4878 C   0  0  0  0  0  0  0  0  0  0  0  0
  1  2  3  0
  2  3  1  0
  3  4  1  1
  3  5  1  0
  5  6  2  0
  6  7  1  0
  7  8  2  0
  8  9  1  0
  8 10  1  0
 10 11  1  0
 10 15  2  0
 11 12  1  0
 11 13  2  0
 11 14  2  0
 15  5  1  0
M  END
>  <Hit>  (152) 
Mpro-x0946_0

>  <Receptor>  (152) 
Mpro-x1249_0

>  <SCORE>  (152) 
-10.3558

>  <SCORE.norm>  (152) 
-0.69038900000000003

>  <SCORE.heavy>  (152) 
15

>  <OrigSmiles>  (152) 
C#CC(C)c1ccc(Cl)c(S(N)(=O)=O)c1

>  <SuCOS_Score>  (152) 
0.58987262069473856

>  <Max_SuCOS_Score>  (152) 
0.58987262069473856

>  <Cum_SuCOS_Score>  (152) 
4.2547568941058955

>  <TransFSScore_50nM>  (152) 
0.75103299999999995

>  <TransFSScore_1uM>  (152) 
0.239147

>  <TransFSScore_10nM>  (152) 
0.37084899999999998

>  <TransFSScore_200nM>  (152) 
0.81428100000000003

>  <TransFSScore>  (152) 
0.54382749999999991

>  <FeatureSteinScore>  (152) 
0.48324331139082605

$$$$
C#CC(C)c1ccc(Cl)cc1Br
     RDKit          3D

 12 12  0  0  0  0  0  0  0  0999 V2000
    9.5399   -2.8723   25.1156 C   0  0  0  0  0  0  0  0  0  0  0  0
   10.0910   -2.4119   24.1469 C   0  0  0  0  0  0  0  0  0  0  0  0
   10.7640   -1.8483   22.9639 C   0  0  1  0  0  0  0  0  0  0  0  0
    9.8420   -1.9211   21.7449 C   0  0  0  0  0  0  0  0  0  0  0  0
   11.2048   -0.4143   23.2168 C   0  0  0  0  0  0  0  0  0  0  0  0
   10.3489    0.4607   23.9191 C   0  0  0  0  0  0  0  0  0  0  0  0
   10.7083    1.7912   24.1424 C   0  0  0  0  0  0  0  0  0  0  0  0
   11.9258    2.2734   23.6605 C   0  0  0  0  0  0  0  0  0  0  0  0
   12.3785    3.9450   23.9399 Cl  0  0  0  0  0  0  0  0  0  0  0  0
   12.7813    1.4274   22.9491 C   0  0  0  0  0  0  0  0  0  0  0  0
   12.4287    0.0914   22.7141 C   0  0  0  0  0  0  0  0  0  0  0  0
   13.6475   -0.9849   21.6798 Br  0  0  0  0  0  0  0  0  0  0  0  0
  1  2  3  0
  2  3  1  0
  3  4  1  6
  3  5  1  0
  5  6  2  0
  6  7  1  0
  7  8  2  0
  8  9  1  0
  8 10  1  0
 10 11  2  0
 11 12  1  0
 11  5  1  0
M  END
>  <Hit>  (153) 
Mpro-x0946_0

>  <Receptor>  (153) 
Mpro-x1249_0

>  <SCORE>  (153) 
-7.6764400000000004

>  <SCORE.norm>  (153) 
-0.63970400000000005

>  <SCORE.heavy>  (153) 
12

>  <OrigSmiles>  (153) 
C#CC(C)c1ccc(Cl)cc1Br

>  <SuCOS_Score>  (153) 
0.35269564233780665

>  <Max_SuCOS_Score>  (153) 
0.45677233231899034

>  <Cum_SuCOS_Score>  (153) 
5.1121432321195863

>  <TransFSScore_50nM>  (153) 
0.071062

>  <TransFSScore_1uM>  (153) 
0.12889300000000001

>  <TransFSScore_10nM>  (153) 
0.0051729999999999996

>  <TransFSScore_200nM>  (153) 
0.034971000000000002

>  <TransFSScore>  (153) 
0.060024750000000002

>  <FeatureSteinScore>  (153) 
0.55439878840757462

$$$$
C#CC(CC)NC(=O)C12CCC(CC1)N2
     RDKit          3D

 15 16  0  0  0  0  0  0  0  0999 V2000
    8.1794   -5.9869   27.8583 C   0  0  0  0  0  0  0  0  0  0  0  0
    8.5133   -5.0383   27.1933 C   0  0  0  0  0  0  0  0  0  0  0  0
    8.9195   -3.8828   26.3820 C   0  0  1  0  0  0  0  0  0  0  0  0
    8.5924   -4.1385   24.8915 C   0  0  0  0  0  0  0  0  0  0  0  0
    9.1759   -3.0555   23.9874 C   0  0  0  0  0  0  0  0  0  0  0  0
    8.2045   -2.7152   26.8794 N   0  0  0  0  0  0  0  0  0  0  0  0
    8.6747   -1.3691   26.7489 C   0  0  0  0  0  0  0  0  0  0  0  0
    9.8153   -1.1369   26.2649 O   0  0  0  0  0  0  0  0  0  0  0  0
    7.7847   -0.2223   27.1433 C   0  0  2  0  0  0  0  0  0  0  0  0
    6.2906   -0.5888   27.1322 C   0  0  0  0  0  0  0  0  0  0  0  0
    5.7176    0.4805   28.0722 C   0  0  0  0  0  0  0  0  0  0  0  0
    6.9847    1.2619   28.4511 C   0  0  2  0  0  0  0  0  0  0  0  0
    7.4118    2.1212   27.2453 C   0  0  0  0  0  0  0  0  0  0  0  0
    7.9922    1.0591   26.3066 C   0  0  0  0  0  0  0  0  0  0  0  0
    7.9895    0.2150   28.5151 N   0  0  0  0  0  0  0  0  0  0  0  0
  1  2  3  0
  3  2  1  1
  3  4  1  0
  3  6  1  0
  4  5  1  0
  6  7  1  0
  7  8  2  0
  9  7  1  6
  9 10  1  0
 10 11  1  0
 12 11  1  6
 12 13  1  0
 12 15  1  0
 13 14  1  0
 14  9  1  0
 15  9  1  0
M  END
>  <Hit>  (154) 
Mpro-x0991_0

>  <Receptor>  (154) 
Mpro-x1249_0

>  <SCORE>  (154) 
-4.4084899999999996

>  <SCORE.norm>  (154) 
-0.29389900000000002

>  <SCORE.heavy>  (154) 
15

>  <OrigSmiles>  (154) 
C#CC(CC)NC(=O)C12CCC(CC1)N2

>  <SuCOS_Score>  (154) 
0.33402803276766507

>  <Max_SuCOS_Score>  (154) 
0.33402803276766507

>  <Cum_SuCOS_Score>  (154) 
1.864278562777048

>  <TransFSScore_50nM>  (154) 
0.001421

>  <TransFSScore_1uM>  (154) 
0.11862399999999999

>  <TransFSScore_10nM>  (154) 
0.0060689999999999997

>  <TransFSScore_200nM>  (154) 
0.0090130000000000002

>  <TransFSScore>  (154) 
0.033781749999999999

>  <FeatureSteinScore>  (154) 
0.36297344472450255

$$$$
C#CC(CC)NC(=O)C1C2CNC1C2
     RDKit          3D

 14 15  0  0  0  0  0  0  0  0999 V2000
    9.9706   -6.0365   25.6248 C   0  0  0  0  0  0  0  0  0  0  0  0
    9.4455   -4.9566   25.5151 C   0  0  0  0  0  0  0  0  0  0  0  0
    8.8052   -3.6389   25.3767 C   0  0  2  0  0  0  0  0  0  0  0  0
    8.9902   -2.9939   23.9788 C   0  0  0  0  0  0  0  0  0  0  0  0
    8.2373   -1.6777   23.7781 C   0  0  0  0  0  0  0  0  0  0  0  0
    9.2768   -2.7622   26.4393 N   0  0  0  0  0  0  0  0  0  0  0  0
    9.0485   -3.0031   27.8319 C   0  0  0  0  0  0  0  0  0  0  0  0
    8.5155   -4.0798   28.2141 O   0  0  0  0  0  0  0  0  0  0  0  0
    9.5045   -1.9897   28.8526 C   0  0  2  0  0  0  0  0  0  0  0  0
    8.5854   -0.7796   29.0116 C   0  0  1  0  0  0  0  0  0  0  0  0
    9.3753   -0.0125   30.0788 C   0  0  0  0  0  0  0  0  0  0  0  0
   10.7422   -0.1159   29.5214 N   0  0  0  0  0  0  0  0  0  0  0  0
   10.4226   -0.8888   28.3127 C   0  0  2  0  0  0  0  0  0  0  0  0
    9.2001   -0.1582   27.7646 C   0  0  0  0  0  0  0  0  0  0  0  0
  1  2  3  0
  3  2  1  6
  3  4  1  0
  3  6  1  0
  4  5  1  0
  6  7  1  0
  7  8  2  0
  9  7  1  6
  9 10  1  0
 10 11  1  1
 11 12  1  0
 12 13  1  0
 13 14  1  6
 13  9  1  0
 14 10  1  0
M  END
>  <Hit>  (155) 
Mpro-x0991_0

>  <Receptor>  (155) 
Mpro-x0387_0

>  <SCORE>  (155) 
-6.7565099999999996

>  <SCORE.norm>  (155) 
-0.48260799999999998

>  <SCORE.heavy>  (155) 
14

>  <OrigSmiles>  (155) 
C#CC(CC)NC(=O)C1C2CNC1C2

>  <SuCOS_Score>  (155) 
0.34421432519520018

>  <Max_SuCOS_Score>  (155) 
0.34421432519520018

>  <Cum_SuCOS_Score>  (155) 
1.8452288700103603

>  <TransFSScore_50nM>  (155) 
0.0033800000000000002

>  <TransFSScore_1uM>  (155) 
0.063372999999999999

>  <TransFSScore_10nM>  (155) 
0.0023259999999999999

>  <TransFSScore_200nM>  (155) 
0.016920999999999999

>  <TransFSScore>  (155) 
0.021499999999999998

>  <FeatureSteinScore>  (155) 
0.20410817486391708

$$$$
C#CC(CC)NC(=O)C1CC2CCC1N2
     RDKit          3D

 15 16  0  0  0  0  0  0  0  0999 V2000
    8.8621   -2.8676   26.0971 C   0  0  0  0  0  0  0  0  0  0  0  0
    9.3880   -2.3571   25.1397 C   0  0  0  0  0  0  0  0  0  0  0  0
   10.0308   -1.7336   23.9717 C   0  0  1  0  0  0  0  0  0  0  0  0
    9.0402   -1.6705   22.7859 C   0  0  0  0  0  0  0  0  0  0  0  0
    9.7219   -1.1960   21.5049 C   0  0  0  0  0  0  0  0  0  0  0  0
   10.4769   -0.3930   24.3464 N   0  0  0  0  0  0  0  0  0  0  0  0
   11.6544    0.2105   23.7898 C   0  0  0  0  0  0  0  0  0  0  0  0
   12.4205   -0.4657   23.0494 O   0  0  0  0  0  0  0  0  0  0  0  0
   11.9254    1.6771   24.0368 C   0  0  1  0  0  0  0  0  0  0  0  0
   13.1307    2.2415   23.2509 C   0  0  0  0  0  0  0  0  0  0  0  0
   12.4595    3.3639   22.4343 C   0  0  2  0  0  0  0  0  0  0  0  0
   12.1203    4.5236   23.3912 C   0  0  0  0  0  0  0  0  0  0  0  0
   10.9059    3.9547   24.1404 C   0  0  0  0  0  0  0  0  0  0  0  0
   10.7763    2.5615   23.4944 C   0  0  1  0  0  0  0  0  0  0  0  0
   11.1553    2.8090   22.1110 N   0  0  0  0  0  0  0  0  0  0  0  0
  1  2  3  0
  3  2  1  1
  3  4  1  0
  3  6  1  0
  4  5  1  0
  6  7  1  0
  7  8  2  0
  9  7  1  6
  9 10  1  0
 11 10  1  1
 11 12  1  0
 12 13  1  0
 14 13  1  1
 14 15  1  0
 14  9  1  0
 15 11  1  0
M  END
>  <Hit>  (156) 
Mpro-x0991_0

>  <Receptor>  (156) 
Mpro-x0874_0

>  <SCORE>  (156) 
-10.399699999999999

>  <SCORE.norm>  (156) 
-0.69330999999999998

>  <SCORE.heavy>  (156) 
15

>  <OrigSmiles>  (156) 
C#CC(CC)NC(=O)C1CC2CCC1N2

>  <SuCOS_Score>  (156) 
0.11252653927813161

>  <Max_SuCOS_Score>  (156) 
0.33548653954822205

>  <Cum_SuCOS_Score>  (156) 
4.2936883132203532

>  <TransFSScore_50nM>  (156) 
0.0044889999999999999

>  <TransFSScore_1uM>  (156) 
0.057528000000000003

>  <TransFSScore_10nM>  (156) 
0.0070410000000000004

>  <TransFSScore_200nM>  (156) 
0.069278999999999993

>  <TransFSScore>  (156) 
0.034584249999999997

>  <FeatureSteinScore>  (156) 
0.32620116771980107

$$$$
C#CC(CC)NC(=O)[C@@H]1C[C@@H]2CC[C@H]1N2
     RDKit          3D

 15 16  0  0  0  0  0  0  0  0999 V2000
   10.2435   -5.6502   25.7127 C   0  0  0  0  0  0  0  0  0  0  0  0
    9.8289   -4.6444   25.1929 C   0  0  0  0  0  0  0  0  0  0  0  0
    9.3174   -3.4166   24.5566 C   0  0  2  0  0  0  0  0  0  0  0  0
    8.5979   -3.6573   23.2062 C   0  0  0  0  0  0  0  0  0  0  0  0
    8.2225   -2.3826   22.4487 C   0  0  0  0  0  0  0  0  0  0  0  0
   10.3936   -2.4387   24.4184 N   0  0  0  0  0  0  0  0  0  0  0  0
   10.2027   -1.0395   24.6812 C   0  0  0  0  0  0  0  0  0  0  0  0
    9.0465   -0.5997   24.9304 O   0  0  0  0  0  0  0  0  0  0  0  0
   11.3515   -0.0688   24.5263 C   0  0  2  0  0  0  0  0  0  0  0  0
   10.9417    1.4127   24.3814 C   0  0  0  0  0  0  0  0  0  0  0  0
   11.7307    1.8295   23.1219 C   0  0  2  0  0  0  0  0  0  0  0  0
   10.9915    1.2734   21.8934 C   0  0  0  0  0  0  0  0  0  0  0  0
   11.3375   -0.2173   21.9865 C   0  0  0  0  0  0  0  0  0  0  0  0
   12.2210   -0.2531   23.2565 C   0  0  1  0  0  0  0  0  0  0  0  0
   12.9340    1.0129   23.1828 N   0  0  0  0  0  0  0  0  0  0  0  0
  1  2  3  0
  3  2  1  6
  3  4  1  0
  3  6  1  0
  4  5  1  0
  6  7  1  0
  7  8  2  0
  9  7  1  6
  9 10  1  0
 11 10  1  1
 11 12  1  0
 12 13  1  0
 14 13  1  6
 14 15  1  0
 14  9  1  0
 15 11  1  0
M  END
>  <Hit>  (157) 
Mpro-x0991_0

>  <Receptor>  (157) 
Mpro-x0874_0

>  <SCORE>  (157) 
-10.2089

>  <SCORE.norm>  (157) 
-0.68059199999999997

>  <SCORE.heavy>  (157) 
15

>  <OrigSmiles>  (157) 
C#CC(CC)NC(=O)[C@@H]1C[C@@H]2CC[C@H]1N2

>  <SuCOS_Score>  (157) 
0.34853056253051068

>  <Max_SuCOS_Score>  (157) 
0.35598092993525993

>  <Cum_SuCOS_Score>  (157) 
4.4050664728190183

>  <TransFSScore_50nM>  (157) 
0.0091540000000000007

>  <TransFSScore_1uM>  (157) 
0.105408

>  <TransFSScore_10nM>  (157) 
0.0060699999999999999

>  <TransFSScore_200nM>  (157) 
0.050656

>  <TransFSScore>  (157) 
0.042821999999999999

>  <FeatureSteinScore>  (157) 
0.4801870457888473

$$$$
C#CC(CC)NC(=O)[C@H]1[C@@H]2C[C@H]1CN2
     RDKit          3D

 14 15  0  0  0  0  0  0  0  0999 V2000
   10.1221   -4.2040   24.8234 C   0  0  0  0  0  0  0  0  0  0  0  0
   10.2018   -3.3608   23.9654 C   0  0  0  0  0  0  0  0  0  0  0  0
   10.2973   -2.3299   22.9184 C   0  0  1  0  0  0  0  0  0  0  0  0
    8.9048   -2.1030   22.2779 C   0  0  0  0  0  0  0  0  0  0  0  0
    8.9655   -1.0909   21.1370 C   0  0  0  0  0  0  0  0  0  0  0  0
   10.8274   -1.1042   23.5166 N   0  0  0  0  0  0  0  0  0  0  0  0
   11.6144   -0.1679   22.7650 C   0  0  0  0  0  0  0  0  0  0  0  0
   12.0068   -0.4560   21.6017 O   0  0  0  0  0  0  0  0  0  0  0  0
   12.0523    1.1357   23.3952 C   0  0  1  0  0  0  0  0  0  0  0  0
   12.0065    2.4047   22.5342 C   0  0  2  0  0  0  0  0  0  0  0  0
   11.8160    3.2013   23.8227 C   0  0  0  0  0  0  0  0  0  0  0  0
   11.0262    1.9495   24.1876 C   0  0  1  0  0  0  0  0  0  0  0  0
    9.8833    2.0923   23.1715 C   0  0  0  0  0  0  0  0  0  0  0  0
   10.6528    2.4221   21.9535 N   0  0  0  0  0  0  0  0  0  0  0  0
  1  2  3  0
  3  2  1  1
  3  4  1  0
  3  6  1  0
  4  5  1  0
  6  7  1  0
  7  8  2  0
  9  7  1  6
  9 10  1  0
 10 11  1  1
 12 11  1  6
 12 13  1  0
 12  9  1  0
 13 14  1  0
 14 10  1  0
M  END
>  <Hit>  (158) 
Mpro-x0991_0

>  <Receptor>  (158) 
Mpro-x0874_0

>  <SCORE>  (158) 
-10.4617

>  <SCORE.norm>  (158) 
-0.74726300000000001

>  <SCORE.heavy>  (158) 
14

>  <OrigSmiles>  (158) 
C#CC(CC)NC(=O)[C@H]1[C@@H]2C[C@H]1CN2

>  <SuCOS_Score>  (158) 
0.16959999999999997

>  <Max_SuCOS_Score>  (158) 
0.3133177982016257

>  <Cum_SuCOS_Score>  (158) 
4.277837795512152

>  <TransFSScore_50nM>  (158) 
0.007705

>  <TransFSScore_1uM>  (158) 
0.044201999999999998

>  <TransFSScore_10nM>  (158) 
0.012298

>  <TransFSScore_200nM>  (158) 
0.069805000000000006

>  <TransFSScore>  (158) 
0.033502500000000004

>  <FeatureSteinScore>  (158) 
0.37153543298862785

$$$$
C#CC(CC)Nc1ncc(C#N)cc1Cl
     RDKit          3D

 15 15  0  0  0  0  0  0  0  0999 V2000
   10.6941   -0.2454   29.4117 C   0  0  0  0  0  0  0  0  0  0  0  0
   10.3769   -0.7673   28.3716 C   0  0  0  0  0  0  0  0  0  0  0  0
    9.9861   -1.4087   27.0925 C   0  0  1  0  0  0  0  0  0  0  0  0
    8.5668   -1.9907   27.2502 C   0  0  0  0  0  0  0  0  0  0  0  0
    7.4652   -0.9907   27.6378 C   0  0  0  0  0  0  0  0  0  0  0  0
   10.0612   -0.4785   25.9411 N   0  0  0  0  0  0  0  0  0  0  0  0
   10.9104   -0.8399   24.8195 C   0  0  0  0  0  0  0  0  0  0  0  0
   11.4786    0.1756   24.1017 N   0  0  0  0  0  0  0  0  0  0  0  0
   12.1993   -0.0441   22.9733 C   0  0  0  0  0  0  0  0  0  0  0  0
   12.4107   -1.3419   22.5133 C   0  0  0  0  0  0  0  0  0  0  0  0
   13.1735   -1.5743   21.3071 C   0  0  0  0  0  0  0  0  0  0  0  0
   13.7846   -1.7550   20.3401 N   0  0  0  0  0  0  0  0  0  0  0  0
   11.8440   -2.4051   23.2105 C   0  0  0  0  0  0  0  0  0  0  0  0
   11.0457   -2.1697   24.3298 C   0  0  0  0  0  0  0  0  0  0  0  0
   10.0832   -3.5466   24.8649 Cl  0  0  0  0  0  0  0  0  0  0  0  0
  1  2  3  0
  3  2  1  1
  3  4  1  0
  3  6  1  0
  4  5  1  0
  6  7  1  0
  7  8  2  0
  8  9  1  0
  9 10  2  0
 10 11  1  0
 10 13  1  0
 11 12  3  0
 13 14  2  0
 14 15  1  0
 14  7  1  0
M  END
>  <Hit>  (159) 
Mpro-x0305_0

>  <Receptor>  (159) 
Mpro-x0387_0

>  <SCORE>  (159) 
-11.1145

>  <SCORE.norm>  (159) 
-0.74096499999999998

>  <SCORE.heavy>  (159) 
15

>  <OrigSmiles>  (159) 
C#CC(CC)Nc1ncc(C#N)cc1Cl

>  <SuCOS_Score>  (159) 
0.76566244260544347

>  <Max_SuCOS_Score>  (159) 
0.76566244260544347

>  <Cum_SuCOS_Score>  (159) 
4.0883676946011507

>  <TransFSScore_50nM>  (159) 
0.0093539999999999995

>  <TransFSScore_1uM>  (159) 
0.047371000000000003

>  <TransFSScore_10nM>  (159) 
0.0045050000000000003

>  <TransFSScore_200nM>  (159) 
0.35460199999999997

>  <TransFSScore>  (159) 
0.10395799999999999

>  <FeatureSteinScore>  (159) 
0.35990623338198724

$$$$
C#CC(CC)Nc1nccc(C)c1Br
     RDKit          3D

 14 14  0  0  0  0  0  0  0  0999 V2000
    6.2240   -2.1342   21.4141 C   0  0  0  0  0  0  0  0  0  0  0  0
    7.4289   -2.1000   21.4394 C   0  0  0  0  0  0  0  0  0  0  0  0
    8.9038   -2.0567   21.4691 C   0  0  2  0  0  0  0  0  0  0  0  0
    9.3879   -2.0371   22.9463 C   0  0  0  0  0  0  0  0  0  0  0  0
   10.9130   -2.0726   23.0647 C   0  0  0  0  0  0  0  0  0  0  0  0
    9.3678   -0.8775   20.7020 N   0  0  0  0  0  0  0  0  0  0  0  0
    8.2726   -0.1340   20.1192 C   0  0  0  0  0  0  0  0  0  0  0  0
    7.9647   -0.3222   18.8036 N   0  0  0  0  0  0  0  0  0  0  0  0
    6.9366    0.3303   18.2079 C   0  0  0  0  0  0  0  0  0  0  0  0
    6.1565    1.2268   18.9323 C   0  0  0  0  0  0  0  0  0  0  0  0
    6.4361    1.4567   20.2845 C   0  0  0  0  0  0  0  0  0  0  0  0
    5.5980    2.4318   21.0688 C   0  0  0  0  0  0  0  0  0  0  0  0
    7.5084    0.7740   20.8899 C   0  0  0  0  0  0  0  0  0  0  0  0
    7.9351    1.1046   22.7431 Br  0  0  0  0  0  0  0  0  0  0  0  0
  1  2  3  0
  3  2  1  1
  3  4  1  0
  3  6  1  0
  4  5  1  0
  6  7  1  0
  7  8  2  0
  8  9  1  0
  9 10  2  0
 10 11  1  0
 11 12  1  0
 11 13  2  0
 13 14  1  0
 13  7  1  0
M  END
>  <Hit>  (160) 
Mpro-x0107_0

>  <Receptor>  (160) 
Mpro-x0387_0

>  <SCORE>  (160) 
-11.760400000000001

>  <SCORE.norm>  (160) 
-0.840028

>  <SCORE.heavy>  (160) 
14

>  <OrigSmiles>  (160) 
C#CC(CC)Nc1nccc(C)c1Br

>  <SuCOS_Score>  (160) 
0.4484479162713263

>  <Max_SuCOS_Score>  (160) 
0.4484479162713263

>  <Cum_SuCOS_Score>  (160) 
3.7468505934683649

>  <TransFSScore_50nM>  (160) 
0.00035199999999999999

>  <TransFSScore_1uM>  (160) 
0.013511

>  <TransFSScore_10nM>  (160) 
0.00025700000000000001

>  <TransFSScore_200nM>  (160) 
0.021728999999999998

>  <TransFSScore>  (160) 
0.0089622499999999997

>  <FeatureSteinScore>  (160) 
0.29684489281428011

$$$$
C#CC(CO)NC(=O)C12CCC(CC1)N2
     RDKit          3D

 15 16  0  0  0  0  0  0  0  0999 V2000
    7.2878   -4.6721   22.3363 C   0  0  0  0  0  0  0  0  0  0  0  0
    8.1179   -4.5144   23.1963 C   0  0  0  0  0  0  0  0  0  0  0  0
    9.1350   -4.3220   24.2505 C   0  0  2  0  0  0  0  0  0  0  0  0
    9.6321   -5.6818   24.7627 C   0  0  0  0  0  0  0  0  0  0  0  0
   10.7346   -5.5181   25.6154 O   0  0  0  0  0  0  0  0  0  0  0  0
    8.5831   -3.5410   25.3596 N   0  0  0  0  0  0  0  0  0  0  0  0
    8.0161   -2.2332   25.1623 C   0  0  0  0  0  0  0  0  0  0  0  0
    7.9227   -1.7624   23.9957 O   0  0  0  0  0  0  0  0  0  0  0  0
    7.5272   -1.3891   26.3198 C   0  0  1  0  0  0  0  0  0  0  0  0
    6.4383   -2.0909   27.1602 C   0  0  0  0  0  0  0  0  0  0  0  0
    5.7917   -0.8948   27.8728 C   0  0  0  0  0  0  0  0  0  0  0  0
    6.6200    0.2780   27.3136 C   0  0  1  0  0  0  0  0  0  0  0  0
    8.0081    0.2465   27.9817 C   0  0  0  0  0  0  0  0  0  0  0  0
    8.6617   -0.9462   27.2693 C   0  0  0  0  0  0  0  0  0  0  0  0
    6.8967   -0.1289   25.9445 N   0  0  0  0  0  0  0  0  0  0  0  0
  1  2  3  0
  3  2  1  6
  3  4  1  0
  3  6  1  0
  4  5  1  0
  6  7  1  0
  7  8  2  0
  9  7  1  6
  9 10  1  0
 10 11  1  0
 12 11  1  1
 12 13  1  0
 12 15  1  0
 13 14  1  0
 14  9  1  0
 15  9  1  0
M  END
>  <Hit>  (161) 
Mpro-x0991_0

>  <Receptor>  (161) 
Mpro-x1249_0

>  <SCORE>  (161) 
-4.2410199999999998

>  <SCORE.norm>  (161) 
-0.28273500000000001

>  <SCORE.heavy>  (161) 
15

>  <OrigSmiles>  (161) 
C#CC(CO)NC(=O)C12CCC(CC1)N2

>  <SuCOS_Score>  (161) 
0.54193702184220172

>  <Max_SuCOS_Score>  (161) 
0.54193702184220172

>  <Cum_SuCOS_Score>  (161) 
1.9436036979449289

>  <TransFSScore_50nM>  (161) 
0.041606999999999998

>  <TransFSScore_1uM>  (161) 
0.27806999999999998

>  <TransFSScore_10nM>  (161) 
0.18176899999999999

>  <TransFSScore_200nM>  (161) 
0.052768000000000002

>  <TransFSScore>  (161) 
0.1385535

>  <FeatureSteinScore>  (161) 
0.4696173165840411

$$$$
C#CC(CO)NC(=O)C1CC2CCC1N2
     RDKit          3D

 15 16  0  0  0  0  0  0  0  0999 V2000
   11.3705    2.3368   22.9031 C   0  0  0  0  0  0  0  0  0  0  0  0
   10.9146    1.4717   22.1980 C   0  0  0  0  0  0  0  0  0  0  0  0
   10.3591    0.4159   21.3370 C   0  0  1  0  0  0  0  0  0  0  0  0
   10.3048   -0.9210   22.0874 C   0  0  0  0  0  0  0  0  0  0  0  0
    9.7171   -1.9151   21.2901 O   0  0  0  0  0  0  0  0  0  0  0  0
    9.0215    0.8059   20.8964 N   0  0  0  0  0  0  0  0  0  0  0  0
    8.4315    0.2999   19.6886 C   0  0  0  0  0  0  0  0  0  0  0  0
    9.0225   -0.5994   19.0299 O   0  0  0  0  0  0  0  0  0  0  0  0
    7.0447    0.7371   19.2740 C   0  0  1  0  0  0  0  0  0  0  0  0
    6.5668    0.1918   17.9109 C   0  0  0  0  0  0  0  0  0  0  0  0
    5.1869   -0.3937   18.2792 C   0  0  1  0  0  0  0  0  0  0  0  0
    5.4162   -1.7385   18.9889 C   0  0  0  0  0  0  0  0  0  0  0  0
    5.9207   -1.2708   20.3589 C   0  0  0  0  0  0  0  0  0  0  0  0
    5.8888    0.2676   20.1938 C   0  0  2  0  0  0  0  0  0  0  0  0
    4.7202    0.4722   19.3521 N   0  0  0  0  0  0  0  0  0  0  0  0
  1  2  3  0
  3  2  1  1
  3  4  1  0
  3  6  1  0
  4  5  1  0
  6  7  1  0
  7  8  2  0
  9  7  1  1
  9 10  1  0
 11 10  1  1
 11 12  1  0
 12 13  1  0
 14 13  1  6
 14 15  1  0
 14  9  1  0
 15 11  1  0
M  END
>  <Hit>  (162) 
Mpro-x0991_0

>  <Receptor>  (162) 
Mpro-x0874_0

>  <SCORE>  (162) 
-14.469200000000001

>  <SCORE.norm>  (162) 
-0.96461399999999997

>  <SCORE.heavy>  (162) 
15

>  <OrigSmiles>  (162) 
C#CC(CO)NC(=O)C1CC2CCC1N2

>  <SuCOS_Score>  (162) 
0.010712372790573133

>  <Max_SuCOS_Score>  (162) 
0.39031291091336001

>  <Cum_SuCOS_Score>  (162) 
3.5275623532633755

>  <TransFSScore_50nM>  (162) 
0.0087270000000000004

>  <TransFSScore_1uM>  (162) 
0.069777000000000006

>  <TransFSScore_10nM>  (162) 
0.030994000000000001

>  <TransFSScore_200nM>  (162) 
0.490201

>  <TransFSScore>  (162) 
0.14992475

>  <FeatureSteinScore>  (162) 
0.13831181008147064

$$$$
C#CC(CO)NC(=O)[C@@H]1C[C@@H]2CC[C@H]1N2
     RDKit          3D

 15 16  0  0  0  0  0  0  0  0999 V2000
    9.4712   -3.0596   22.6448 C   0  0  0  0  0  0  0  0  0  0  0  0
    9.4909   -3.3081   23.8244 C   0  0  0  0  0  0  0  0  0  0  0  0
    9.5132   -3.6101   25.2692 C   0  0  2  0  0  0  0  0  0  0  0  0
    9.8460   -5.0887   25.4946 C   0  0  0  0  0  0  0  0  0  0  0  0
   11.1532   -5.3746   25.0714 O   0  0  0  0  0  0  0  0  0  0  0  0
    8.2164   -3.3183   25.8737 N   0  0  0  0  0  0  0  0  0  0  0  0
    7.7546   -2.0446   26.3494 C   0  0  0  0  0  0  0  0  0  0  0  0
    6.5179   -1.9011   26.5396 O   0  0  0  0  0  0  0  0  0  0  0  0
    8.6815   -0.8510   26.4973 C   0  0  2  0  0  0  0  0  0  0  0  0
    7.9959    0.4813   26.8627 C   0  0  0  0  0  0  0  0  0  0  0  0
    8.6220    1.4491   25.8343 C   0  0  2  0  0  0  0  0  0  0  0  0
    7.9135    1.2320   24.4892 C   0  0  0  0  0  0  0  0  0  0  0  0
    8.5079   -0.1121   24.0564 C   0  0  0  0  0  0  0  0  0  0  0  0
    9.4700   -0.4246   25.2309 C   0  0  1  0  0  0  0  0  0  0  0  0
    9.9495    0.8979   25.6023 N   0  0  0  0  0  0  0  0  0  0  0  0
  1  2  3  0
  3  2  1  6
  3  4  1  0
  3  6  1  0
  4  5  1  0
  6  7  1  0
  7  8  2  0
  9  7  1  6
  9 10  1  0
 11 10  1  1
 11 12  1  0
 12 13  1  0
 14 13  1  6
 14 15  1  0
 14  9  1  0
 15 11  1  0
M  END
>  <Hit>  (163) 
Mpro-x0991_0

>  <Receptor>  (163) 
Mpro-x0874_0

>  <SCORE>  (163) 
-6.9868899999999998

>  <SCORE.norm>  (163) 
-0.46579199999999998

>  <SCORE.heavy>  (163) 
15

>  <OrigSmiles>  (163) 
C#CC(CO)NC(=O)[C@@H]1C[C@@H]2CC[C@H]1N2

>  <SuCOS_Score>  (163) 
0.36771995846228772

>  <Max_SuCOS_Score>  (163) 
0.36771995846228772

>  <Cum_SuCOS_Score>  (163) 
2.7340965675113327

>  <TransFSScore_50nM>  (163) 
0.061874999999999999

>  <TransFSScore_1uM>  (163) 
0.134717

>  <TransFSScore_10nM>  (163) 
0.029808999999999999

>  <TransFSScore_200nM>  (163) 
0.034153000000000003

>  <TransFSScore>  (163) 
0.065138500000000002

>  <FeatureSteinScore>  (163) 
0.31538474083875084

$$$$
C#CC(CO)Nc1nccc(C)c1C#N
     RDKit          3D

 15 15  0  0  0  0  0  0  0  0999 V2000
    8.6277    1.8929   27.9460 C   0  0  0  0  0  0  0  0  0  0  0  0
    9.0585    0.7895   27.7210 C   0  0  0  0  0  0  0  0  0  0  0  0
    9.5871   -0.5645   27.4446 C   0  0  2  0  0  0  0  0  0  0  0  0
    9.9870   -1.2489   28.7611 C   0  0  0  0  0  0  0  0  0  0  0  0
   10.9904   -0.5053   29.4050 O   0  0  0  0  0  0  0  0  0  0  0  0
   10.5609   -0.4431   26.3410 N   0  0  0  0  0  0  0  0  0  0  0  0
   10.2252   -0.6043   24.9442 C   0  0  0  0  0  0  0  0  0  0  0  0
   10.8664    0.2190   24.0546 N   0  0  0  0  0  0  0  0  0  0  0  0
   10.9536   -0.0651   22.7322 C   0  0  0  0  0  0  0  0  0  0  0  0
   10.2855   -1.1607   22.2078 C   0  0  0  0  0  0  0  0  0  0  0  0
    9.5743   -2.0041   23.0556 C   0  0  0  0  0  0  0  0  0  0  0  0
    8.9124   -3.2235   22.4639 C   0  0  0  0  0  0  0  0  0  0  0  0
    9.6829   -1.8197   24.4427 C   0  0  0  0  0  0  0  0  0  0  0  0
    9.7916   -3.0530   25.1946 C   0  0  0  0  0  0  0  0  0  0  0  0
    9.8956   -4.0589   25.7588 N   0  0  0  0  0  0  0  0  0  0  0  0
  1  2  3  0
  3  2  1  1
  3  4  1  0
  3  6  1  0
  4  5  1  0
  6  7  1  0
  7  8  2  0
  8  9  1  0
  9 10  2  0
 10 11  1  0
 11 12  1  0
 11 13  2  0
 13 14  1  0
 13  7  1  0
 14 15  3  0
M  END
>  <Hit>  (164) 
Mpro-x0305_0

>  <Receptor>  (164) 
Mpro-x0387_0

>  <SCORE>  (164) 
-10.7883

>  <SCORE.norm>  (164) 
-0.71921800000000002

>  <SCORE.heavy>  (164) 
15

>  <OrigSmiles>  (164) 
C#CC(CO)Nc1nccc(C)c1C#N

>  <SuCOS_Score>  (164) 
0.35999512915809484

>  <Max_SuCOS_Score>  (164) 
0.35999512915809484

>  <Cum_SuCOS_Score>  (164) 
3.2792822000396757

>  <TransFSScore_50nM>  (164) 
0.000125

>  <TransFSScore_1uM>  (164) 
0.054733999999999998

>  <TransFSScore_10nM>  (164) 
0.00028600000000000001

>  <TransFSScore_200nM>  (164) 
0.0011720000000000001

>  <TransFSScore>  (164) 
0.01407925

>  <FeatureSteinScore>  (164) 
0.25514767706069391

$$$$
C#CC(N)C(C)(O)c1ccc(Br)cc1Cl
     RDKit          3D

 15 15  0  0  0  0  0  0  0  0999 V2000
    8.1543    5.9258   23.5303 C   0  0  0  0  0  0  0  0  0  0  0  0
    8.8632    4.9506   23.5293 C   0  0  0  0  0  0  0  0  0  0  0  0
    9.7395    3.7621   23.5419 C   0  0  2  0  0  0  0  0  0  0  0  0
   11.0032    4.0573   22.8574 N   0  0  0  0  0  0  0  0  0  0  0  0
    9.0375    2.4981   22.9404 C   0  0  1  0  0  0  0  0  0  0  0  0
    7.8651    2.0730   23.8640 C   0  0  0  0  0  0  0  0  0  0  0  0
    8.4590    2.8191   21.6950 O   0  0  0  0  0  0  0  0  0  0  0  0
   10.0481    1.3383   22.7515 C   0  0  0  0  0  0  0  0  0  0  0  0
   11.2655    1.3462   23.4751 C   0  0  0  0  0  0  0  0  0  0  0  0
   12.2173    0.3402   23.3124 C   0  0  0  0  0  0  0  0  0  0  0  0
   11.9974   -0.6962   22.4111 C   0  0  0  0  0  0  0  0  0  0  0  0
   13.3430   -2.0415   22.1678 Br  0  0  0  0  0  0  0  0  0  0  0  0
   10.8156   -0.7313   21.6720 C   0  0  0  0  0  0  0  0  0  0  0  0
    9.8462    0.2713   21.8222 C   0  0  0  0  0  0  0  0  0  0  0  0
    8.4309    0.1171   20.7802 Cl  0  0  0  0  0  0  0  0  0  0  0  0
  1  2  3  0
  2  3  1  0
  3  4  1  6
  3  5  1  0
  5  6  1  1
  5  7  1  0
  5  8  1  0
  8  9  2  0
  9 10  1  0
 10 11  2  0
 11 12  1  0
 11 13  1  0
 13 14  2  0
 14 15  1  0
 14  8  1  0
M  END
>  <Hit>  (165) 
Mpro-x0946_0

>  <Receptor>  (165) 
Mpro-x0387_0

>  <SCORE>  (165) 
-10.211600000000001

>  <SCORE.norm>  (165) 
-0.68077600000000005

>  <SCORE.heavy>  (165) 
15

>  <OrigSmiles>  (165) 
C#CC(N)C(C)(O)c1ccc(Br)cc1Cl

>  <SuCOS_Score>  (165) 
0.28563955734575175

>  <Max_SuCOS_Score>  (165) 
0.39388619689494941

>  <Cum_SuCOS_Score>  (165) 
4.2415894135598213

>  <TransFSScore_50nM>  (165) 
0.012063000000000001

>  <TransFSScore_1uM>  (165) 
0.022599999999999999

>  <TransFSScore_10nM>  (165) 
0.0023679999999999999

>  <TransFSScore_200nM>  (165) 
0.082609000000000002

>  <TransFSScore>  (165) 
0.029909999999999999

>  <FeatureSteinScore>  (165) 
0.2542263067447158

$$$$
C#CC(N)Cc1c(O)cccc1NC(=O)OC(C)(C)C
     RDKit          3D

 20 20  0  0  0  0  0  0  0  0999 V2000
   11.4334    0.8529   22.0682 C   0  0  0  0  0  0  0  0  0  0  0  0
   10.3365    1.0901   21.6278 C   0  0  0  0  0  0  0  0  0  0  0  0
    9.0147    1.3662   21.0929 C   0  0  2  0  0  0  0  0  0  0  0  0
    8.3907    2.6041   21.5089 N   0  0  0  0  0  0  0  0  0  0  0  0
    8.0602    0.1566   21.0410 C   0  0  0  0  0  0  0  0  0  0  0  0
    7.0889    0.4973   19.9418 C   0  0  0  0  0  0  0  0  0  0  0  0
    7.3348    0.0423   18.6323 C   0  0  0  0  0  0  0  0  0  0  0  0
    8.5847   -0.4490   18.2691 O   0  0  0  0  0  0  0  0  0  0  0  0
    6.3178    0.0700   17.6788 C   0  0  0  0  0  0  0  0  0  0  0  0
    5.0375    0.4911   18.0284 C   0  0  0  0  0  0  0  0  0  0  0  0
    4.7651    0.8987   19.3293 C   0  0  0  0  0  0  0  0  0  0  0  0
    5.7777    0.9169   20.2933 C   0  0  0  0  0  0  0  0  0  0  0  0
    5.4870    1.4179   21.6116 N   0  0  0  0  0  0  0  0  0  0  0  0
    4.2585    2.0700   21.9588 C   0  0  0  0  0  0  0  0  0  0  0  0
    3.2844    2.0551   21.1582 O   0  0  0  0  0  0  0  0  0  0  0  0
    4.1519    2.6883   23.2135 O   0  0  0  0  0  0  0  0  0  0  0  0
    3.0027    3.3799   23.7254 C   0  0  0  0  0  0  0  0  0  0  0  0
    1.7743    2.4502   23.7527 C   0  0  0  0  0  0  0  0  0  0  0  0
    2.7106    4.6397   22.8877 C   0  0  0  0  0  0  0  0  0  0  0  0
    3.3329    3.8062   25.1639 C   0  0  0  0  0  0  0  0  0  0  0  0
  1  2  3  0
  2  3  1  0
  3  4  1  1
  3  5  1  0
  5  6  1  0
  6  7  2  0
  7  8  1  0
  7  9  1  0
  9 10  2  0
 10 11  1  0
 11 12  2  0
 12 13  1  0
 12  6  1  0
 13 14  1  0
 14 15  2  0
 14 16  1  0
 16 17  1  0
 17 18  1  0
 17 19  1  0
 17 20  1  0
M  END
>  <Hit>  (166) 
Mpro-x0967_0

>  <Receptor>  (166) 
Mpro-x0874_0

>  <SCORE>  (166) 
-10.007999999999999

>  <SCORE.norm>  (166) 
-0.50039999999999996

>  <SCORE.heavy>  (166) 
20

>  <OrigSmiles>  (166) 
C#CC(N)Cc1c(O)cccc1NC(=O)OC(C)(C)C

>  <SuCOS_Score>  (166) 
0.30105174355425085

>  <Max_SuCOS_Score>  (166) 
0.48123684388890708

>  <Cum_SuCOS_Score>  (166) 
3.9705660605849298

>  <TransFSScore_50nM>  (166) 
0.037314

>  <TransFSScore_1uM>  (166) 
0.043527000000000003

>  <TransFSScore_10nM>  (166) 
0.033377999999999998

>  <TransFSScore_200nM>  (166) 
0.043277000000000003

>  <TransFSScore>  (166) 
0.039373999999999999

>  <FeatureSteinScore>  (166) 
0.25274138302112559

$$$$
C#CC(N)Cc1cc(NC(=O)OC(C)(C)C)ccc1O
     RDKit          3D

 20 20  0  0  0  0  0  0  0  0999 V2000
   11.1064    0.1024   22.4948 C   0  0  0  0  0  0  0  0  0  0  0  0
   10.1270    0.5088   21.9212 C   0  0  0  0  0  0  0  0  0  0  0  0
    8.9474    0.9982   21.2287 C   0  0  2  0  0  0  0  0  0  0  0  0
    8.6124    2.3945   21.4093 N   0  0  0  0  0  0  0  0  0  0  0  0
    7.7389    0.0408   21.2423 C   0  0  0  0  0  0  0  0  0  0  0  0
    6.8620    0.5370   20.1300 C   0  0  0  0  0  0  0  0  0  0  0  0
    5.6085    1.0749   20.4799 C   0  0  0  0  0  0  0  0  0  0  0  0
    4.6133    1.2608   19.5195 C   0  0  0  0  0  0  0  0  0  0  0  0
    3.3299    1.7692   19.9227 N   0  0  0  0  0  0  0  0  0  0  0  0
    3.0563    2.3489   21.2052 C   0  0  0  0  0  0  0  0  0  0  0  0
    3.8959    2.2506   22.1405 O   0  0  0  0  0  0  0  0  0  0  0  0
    1.8232    2.9867   21.4080 O   0  0  0  0  0  0  0  0  0  0  0  0
    1.3970    3.6526   22.6063 C   0  0  0  0  0  0  0  0  0  0  0  0
   -0.0209    4.2300   22.4316 C   0  0  0  0  0  0  0  0  0  0  0  0
    2.3919    4.7636   22.9933 C   0  0  0  0  0  0  0  0  0  0  0  0
    1.3693    2.6003   23.7253 C   0  0  0  0  0  0  0  0  0  0  0  0
    4.8742    0.9008   18.1907 C   0  0  0  0  0  0  0  0  0  0  0  0
    6.1090    0.3571   17.8351 C   0  0  0  0  0  0  0  0  0  0  0  0
    7.0959    0.1459   18.8025 C   0  0  0  0  0  0  0  0  0  0  0  0
    8.2993   -0.4632   18.4468 O   0  0  0  0  0  0  0  0  0  0  0  0
  1  2  3  0
  2  3  1  0
  3  4  1  1
  3  5  1  0
  5  6  1  0
  6  7  2  0
  7  8  1  0
  8  9  1  0
  8 17  2  0
  9 10  1  0
 10 11  2  0
 10 12  1  0
 12 13  1  0
 13 14  1  0
 13 15  1  0
 13 16  1  0
 17 18  1  0
 18 19  2  0
 19 20  1  0
 19  6  1  0
M  END
>  <Hit>  (167) 
Mpro-x0967_0

>  <Receptor>  (167) 
Mpro-x0387_0

>  <SCORE>  (167) 
-14.138999999999999

>  <SCORE.norm>  (167) 
-0.70695200000000002

>  <SCORE.heavy>  (167) 
20

>  <OrigSmiles>  (167) 
C#CC(N)Cc1cc(NC(=O)OC(C)(C)C)ccc1O

>  <SuCOS_Score>  (167) 
0.32109727055080534

>  <Max_SuCOS_Score>  (167) 
0.55182092411377237

>  <Cum_SuCOS_Score>  (167) 
4.2788797217886403

>  <TransFSScore_50nM>  (167) 
0.052084999999999999

>  <TransFSScore_1uM>  (167) 
0.15376600000000001

>  <TransFSScore_10nM>  (167) 
0.046563

>  <TransFSScore_200nM>  (167) 
0.068446999999999994

>  <TransFSScore>  (167) 
0.080215250000000002

>  <FeatureSteinScore>  (167) 
0.31104408314755749

$$$$
C#CC(N)Cc1ccc(Cl)c(S(N)(=O)=O)c1
     RDKit          3D

 16 16  0  0  0  0  0  0  0  0999 V2000
    4.8731    0.0474   17.7907 C   0  0  0  0  0  0  0  0  0  0  0  0
    5.8814    0.4036   18.3473 C   0  0  0  0  0  0  0  0  0  0  0  0
    7.1158    0.8377   19.0309 C   0  0  2  0  0  0  0  0  0  0  0  0
    8.2309   -0.0400   18.6719 N   0  0  0  0  0  0  0  0  0  0  0  0
    6.9287    0.8423   20.5577 C   0  0  0  0  0  0  0  0  0  0  0  0
    8.0051    1.6397   21.2522 C   0  0  0  0  0  0  0  0  0  0  0  0
    9.3174    1.1550   21.3202 C   0  0  0  0  0  0  0  0  0  0  0  0
   10.3042    1.8777   21.9863 C   0  0  0  0  0  0  0  0  0  0  0  0
   10.0050    3.0944   22.5936 C   0  0  0  0  0  0  0  0  0  0  0  0
   11.3533    3.9218   23.3687 Cl  0  0  0  0  0  0  0  0  0  0  0  0
    8.6848    3.5902   22.5420 C   0  0  0  0  0  0  0  0  0  0  0  0
    8.2410    5.1427   23.2004 S   0  0  0  0  0  0  0  0  0  0  0  0
    9.0043    6.3342   22.2321 N   0  0  0  0  0  0  0  0  0  0  0  0
    6.7554    5.3145   23.1206 O   0  0  0  0  0  0  0  0  0  0  0  0
    8.7013    5.2955   24.6166 O   0  0  0  0  0  0  0  0  0  0  0  0
    7.6937    2.8576   21.8708 C   0  0  0  0  0  0  0  0  0  0  0  0
  1  2  3  0
  2  3  1  0
  3  4  1  1
  3  5  1  0
  5  6  1  0
  6  7  2  0
  7  8  1  0
  8  9  2  0
  9 10  1  0
  9 11  1  0
 11 12  1  0
 11 16  2  0
 12 13  1  0
 12 14  2  0
 12 15  2  0
 16  6  1  0
M  END
>  <Hit>  (168) 
Mpro-x0946_0

>  <Receptor>  (168) 
Mpro-x0387_0

>  <SCORE>  (168) 
-10.194800000000001

>  <SCORE.norm>  (168) 
-0.63717500000000005

>  <SCORE.heavy>  (168) 
16

>  <OrigSmiles>  (168) 
C#CC(N)Cc1ccc(Cl)c(S(N)(=O)=O)c1

>  <SuCOS_Score>  (168) 
0.1801554138161941

>  <Max_SuCOS_Score>  (168) 
0.294533121482701

>  <Cum_SuCOS_Score>  (168) 
2.7019922356879214

>  <TransFSScore_50nM>  (168) 
0.099325999999999998

>  <TransFSScore_1uM>  (168) 
0.16378699999999999

>  <TransFSScore_10nM>  (168) 
0.014189

>  <TransFSScore_200nM>  (168) 
0.86052499999999998

>  <TransFSScore>  (168) 
0.28445674999999998

>  <FeatureSteinScore>  (168) 
0.07412366955749003

$$$$
C#CC(N)Cc1ccc(N(CC)CC)cc1O
     RDKit          3D

 17 17  0  0  0  0  0  0  0  0999 V2000
   11.8519    0.5444   24.0662 C   0  0  0  0  0  0  0  0  0  0  0  0
   10.9329    1.0047   23.4362 C   0  0  0  0  0  0  0  0  0  0  0  0
    9.8253    1.5608   22.6774 C   0  0  2  0  0  0  0  0  0  0  0  0
   10.1576    2.2683   21.4595 N   0  0  0  0  0  0  0  0  0  0  0  0
    8.7181    2.2241   23.5214 C   0  0  0  0  0  0  0  0  0  0  0  0
    7.4730    2.0429   22.7047 C   0  0  0  0  0  0  0  0  0  0  0  0
    6.8736    3.1533   22.1007 C   0  0  0  0  0  0  0  0  0  0  0  0
    5.9144    2.9787   21.1048 C   0  0  0  0  0  0  0  0  0  0  0  0
    5.5772    1.6922   20.6487 C   0  0  0  0  0  0  0  0  0  0  0  0
    4.5925    1.5356   19.5846 N   0  0  0  0  0  0  0  0  0  0  0  0
    3.5228    2.5579   19.6803 C   0  0  0  0  0  0  0  0  0  0  0  0
    2.1697    1.9495   20.0673 C   0  0  0  0  0  0  0  0  0  0  0  0
    5.2282    1.5790   18.2457 C   0  0  0  0  0  0  0  0  0  0  0  0
    5.5741    0.1807   17.7209 C   0  0  0  0  0  0  0  0  0  0  0  0
    6.2190    0.5807   21.2249 C   0  0  0  0  0  0  0  0  0  0  0  0
    7.1434    0.7505   22.2493 C   0  0  0  0  0  0  0  0  0  0  0  0
    7.7409   -0.3751   22.8081 O   0  0  0  0  0  0  0  0  0  0  0  0
  1  2  3  0
  2  3  1  0
  3  4  1  6
  3  5  1  0
  5  6  1  0
  6  7  2  0
  7  8  1  0
  8  9  2  0
  9 10  1  0
  9 15  1  0
 10 11  1  0
 10 13  1  0
 11 12  1  0
 13 14  1  0
 15 16  2  0
 16 17  1  0
 16  6  1  0
M  END
>  <Hit>  (169) 
Mpro-x0967_0

>  <Receptor>  (169) 
Mpro-x0387_0

>  <SCORE>  (169) 
-10.1128

>  <SCORE.norm>  (169) 
-0.59486899999999998

>  <SCORE.heavy>  (169) 
17

>  <OrigSmiles>  (169) 
C#CC(N)Cc1ccc(N(CC)CC)cc1O

>  <SuCOS_Score>  (169) 
0.2654177885395822

>  <Max_SuCOS_Score>  (169) 
0.34495246717971934

>  <Cum_SuCOS_Score>  (169) 
3.7514893678780461

>  <TransFSScore_50nM>  (169) 
0.040002000000000003

>  <TransFSScore_1uM>  (169) 
0.090371000000000007

>  <TransFSScore_10nM>  (169) 
0.0012340000000000001

>  <TransFSScore_200nM>  (169) 
0.077987000000000001

>  <TransFSScore>  (169) 
0.052398500000000008

>  <FeatureSteinScore>  (169) 
0.16090677152509253

$$$$
C#CC(N)Cc1ccc(NC(=O)OC(C)(C)C)cc1O
     RDKit          3D

 20 20  0  0  0  0  0  0  0  0999 V2000
   12.3561    0.5404   23.0985 C   0  0  0  0  0  0  0  0  0  0  0  0
   11.2277    0.7986   22.7592 C   0  0  0  0  0  0  0  0  0  0  0  0
    9.8416    1.0773   22.3296 C   0  0  1  0  0  0  0  0  0  0  0  0
    9.7759    2.3990   21.6975 N   0  0  0  0  0  0  0  0  0  0  0  0
    9.2810   -0.0298   21.4062 C   0  0  0  0  0  0  0  0  0  0  0  0
    7.9742    0.3527   20.7493 C   0  0  0  0  0  0  0  0  0  0  0  0
    6.9642    0.9764   21.4991 C   0  0  0  0  0  0  0  0  0  0  0  0
    5.7681    1.3642   20.8918 C   0  0  0  0  0  0  0  0  0  0  0  0
    5.5804    1.1728   19.5145 C   0  0  0  0  0  0  0  0  0  0  0  0
    4.3668    1.5590   18.8542 N   0  0  0  0  0  0  0  0  0  0  0  0
    3.1739    2.0152   19.4986 C   0  0  0  0  0  0  0  0  0  0  0  0
    2.1089    2.0779   18.8301 O   0  0  0  0  0  0  0  0  0  0  0  0
    3.2127    2.4317   20.8384 O   0  0  0  0  0  0  0  0  0  0  0  0
    2.1059    2.9135   21.6139 C   0  0  0  0  0  0  0  0  0  0  0  0
    0.9135    1.9428   21.5198 C   0  0  0  0  0  0  0  0  0  0  0  0
    1.6923    4.2678   21.0185 C   0  0  0  0  0  0  0  0  0  0  0  0
    2.5233    3.1219   23.0821 C   0  0  0  0  0  0  0  0  0  0  0  0
    6.5753    0.5361   18.7710 C   0  0  0  0  0  0  0  0  0  0  0  0
    7.7527    0.0978   19.3831 C   0  0  0  0  0  0  0  0  0  0  0  0
    8.6730   -0.6417   18.6413 O   0  0  0  0  0  0  0  0  0  0  0  0
  1  2  3  0
  2  3  1  0
  3  4  1  6
  3  5  1  0
  5  6  1  0
  6  7  2  0
  7  8  1  0
  8  9  2  0
  9 10  1  0
  9 18  1  0
 10 11  1  0
 11 12  2  0
 11 13  1  0
 13 14  1  0
 14 15  1  0
 14 16  1  0
 14 17  1  0
 18 19  2  0
 19 20  1  0
 19  6  1  0
M  END
>  <Hit>  (170) 
Mpro-x0967_0

>  <Receptor>  (170) 
Mpro-x0305_0

>  <SCORE>  (170) 
-10.312900000000001

>  <SCORE.norm>  (170) 
-0.51564399999999999

>  <SCORE.heavy>  (170) 
20

>  <OrigSmiles>  (170) 
C#CC(N)Cc1ccc(NC(=O)OC(C)(C)C)cc1O

>  <SuCOS_Score>  (170) 
0.25513443859842461

>  <Max_SuCOS_Score>  (170) 
0.37733793982036545

>  <Cum_SuCOS_Score>  (170) 
4.0223251463797789

>  <TransFSScore_50nM>  (170) 
0.090649999999999994

>  <TransFSScore_1uM>  (170) 
0.21721599999999999

>  <TransFSScore_10nM>  (170) 
0.0083470000000000003

>  <TransFSScore_200nM>  (170) 
0.242761

>  <TransFSScore>  (170) 
0.13974349999999999

>  <FeatureSteinScore>  (170) 
0.24532085862671135

$$$$
C#CC(N)Cc1cccc(NC(=O)OC(C)(C)C)c1O
     RDKit          3D

 20 20  0  0  0  0  0  0  0  0999 V2000
   11.7570    0.7870   22.4050 C   0  0  0  0  0  0  0  0  0  0  0  0
   10.7492    0.9341   21.7597 C   0  0  0  0  0  0  0  0  0  0  0  0
    9.5349    1.1108   20.9829 C   0  0  2  0  0  0  0  0  0  0  0  0
    8.7738    2.3137   21.2350 N   0  0  0  0  0  0  0  0  0  0  0  0
    8.6732   -0.1564   20.8199 C   0  0  0  0  0  0  0  0  0  0  0  0
    7.5036    0.2971   19.9960 C   0  0  0  0  0  0  0  0  0  0  0  0
    7.4662    0.0001   18.6277 C   0  0  0  0  0  0  0  0  0  0  0  0
    6.2746    0.1261   17.9161 C   0  0  0  0  0  0  0  0  0  0  0  0
    5.1014    0.4968   18.5723 C   0  0  0  0  0  0  0  0  0  0  0  0
    5.1099    0.7710   19.9420 C   0  0  0  0  0  0  0  0  0  0  0  0
    3.8788    1.1268   20.5905 N   0  0  0  0  0  0  0  0  0  0  0  0
    3.7666    2.1943   21.5394 C   0  0  0  0  0  0  0  0  0  0  0  0
    4.7415    2.9684   21.7407 O   0  0  0  0  0  0  0  0  0  0  0  0
    2.5479    2.3786   22.2092 O   0  0  0  0  0  0  0  0  0  0  0  0
    2.2632    3.3832   23.1945 C   0  0  0  0  0  0  0  0  0  0  0  0
    2.4415    4.7494   22.5147 C   0  0  0  0  0  0  0  0  0  0  0  0
    0.8094    3.2603   23.6901 C   0  0  0  0  0  0  0  0  0  0  0  0
    3.2495    3.2822   24.3739 C   0  0  0  0  0  0  0  0  0  0  0  0
    6.3115    0.6678   20.6570 C   0  0  0  0  0  0  0  0  0  0  0  0
    6.3172    0.8978   22.0305 O   0  0  0  0  0  0  0  0  0  0  0  0
  1  2  3  0
  2  3  1  0
  3  4  1  1
  3  5  1  0
  5  6  1  0
  6  7  2  0
  7  8  1  0
  8  9  2  0
  9 10  1  0
 10 11  1  0
 10 19  2  0
 11 12  1  0
 12 13  2  0
 12 14  1  0
 14 15  1  0
 15 16  1  0
 15 17  1  0
 15 18  1  0
 19 20  1  0
 19  6  1  0
M  END
>  <Hit>  (171) 
Mpro-x0967_0

>  <Receptor>  (171) 
Mpro-x0874_0

>  <SCORE>  (171) 
-10.332000000000001

>  <SCORE.norm>  (171) 
-0.51660200000000001

>  <SCORE.heavy>  (171) 
20

>  <OrigSmiles>  (171) 
C#CC(N)Cc1cccc(NC(=O)OC(C)(C)C)c1O

>  <SuCOS_Score>  (171) 
0.29248514904603251

>  <Max_SuCOS_Score>  (171) 
0.48264789341252967

>  <Cum_SuCOS_Score>  (171) 
4.0143971471322084

>  <TransFSScore_50nM>  (171) 
0.014307

>  <TransFSScore_1uM>  (171) 
0.065848000000000004

>  <TransFSScore_10nM>  (171) 
0.0036870000000000002

>  <TransFSScore_200nM>  (171) 
0.0064429999999999999

>  <TransFSScore>  (171) 
0.022571250000000001

>  <FeatureSteinScore>  (171) 
0.2728940305694858

$$$$
C#CC(N)Cc1ccccc1Oc1ccccc1
     RDKit          3D

 18 19  0  0  0  0  0  0  0  0999 V2000
   11.1587    1.0504   22.2252 C   0  0  0  0  0  0  0  0  0  0  0  0
   10.0698    1.3218   21.7842 C   0  0  0  0  0  0  0  0  0  0  0  0
    8.7573    1.6483   21.2529 C   0  0  2  0  0  0  0  0  0  0  0  0
    8.2136    2.9419   21.6068 N   0  0  0  0  0  0  0  0  0  0  0  0
    7.7321    0.4956   21.2740 C   0  0  0  0  0  0  0  0  0  0  0  0
    7.0656    0.5683   19.9311 C   0  0  0  0  0  0  0  0  0  0  0  0
    7.4376   -0.3350   18.9259 C   0  0  0  0  0  0  0  0  0  0  0  0
    6.6384   -0.4919   17.7939 C   0  0  0  0  0  0  0  0  0  0  0  0
    5.4368    0.2072   17.6823 C   0  0  0  0  0  0  0  0  0  0  0  0
    5.0323    1.0717   18.6960 C   0  0  0  0  0  0  0  0  0  0  0  0
    5.8401    1.2638   19.8220 C   0  0  0  0  0  0  0  0  0  0  0  0
    5.4654    2.1706   20.8269 O   0  0  0  0  0  0  0  0  0  0  0  0
    4.1477    2.4608   21.2105 C   0  0  0  0  0  0  0  0  0  0  0  0
    3.8917    3.6660   21.8760 C   0  0  0  0  0  0  0  0  0  0  0  0
    2.5959    3.9792   22.2981 C   0  0  0  0  0  0  0  0  0  0  0  0
    1.5487    3.0829   22.0676 C   0  0  0  0  0  0  0  0  0  0  0  0
    1.7976    1.8696   21.4204 C   0  0  0  0  0  0  0  0  0  0  0  0
    3.0922    1.5541   20.9966 C   0  0  0  0  0  0  0  0  0  0  0  0
  1  2  3  0
  2  3  1  0
  3  4  1  1
  3  5  1  0
  5  6  1  0
  6  7  2  0
  7  8  1  0
  8  9  2  0
  9 10  1  0
 10 11  2  0
 11 12  1  0
 11  6  1  0
 12 13  1  0
 13 14  2  0
 14 15  1  0
 15 16  2  0
 16 17  1  0
 17 18  2  0
 18 13  1  0
M  END
>  <Hit>  (172) 
Mpro-x0967_0

>  <Receptor>  (172) 
Mpro-x1249_0

>  <SCORE>  (172) 
-11.6968

>  <SCORE.norm>  (172) 
-0.64981999999999995

>  <SCORE.heavy>  (172) 
18

>  <OrigSmiles>  (172) 
C#CC(N)Cc1ccccc1Oc1ccccc1

>  <SuCOS_Score>  (172) 
0.30001668101215351

>  <Max_SuCOS_Score>  (172) 
0.46440373310879174

>  <Cum_SuCOS_Score>  (172) 
3.6999373044494783

>  <TransFSScore_50nM>  (172) 
0.16302700000000001

>  <TransFSScore_1uM>  (172) 
0.19000600000000001

>  <TransFSScore_10nM>  (172) 
0.082893999999999995

>  <TransFSScore_200nM>  (172) 
0.18224000000000001

>  <TransFSScore>  (172) 
0.15454175000000003

>  <FeatureSteinScore>  (172) 
0.2771095556151299

$$$$
C#CC(N)c1ccc(Br)cc1Cl
     RDKit          3D

 12 12  0  0  0  0  0  0  0  0999 V2000
   14.1094    5.9908   21.4778 C   0  0  0  0  0  0  0  0  0  0  0  0
   13.3389    5.6275   22.3310 C   0  0  0  0  0  0  0  0  0  0  0  0
   12.3966    5.1833   23.3751 C   0  0  2  0  0  0  0  0  0  0  0  0
   12.9737    5.3932   24.7071 N   0  0  0  0  0  0  0  0  0  0  0  0
   12.0247    3.7202   23.1781 C   0  0  0  0  0  0  0  0  0  0  0  0
   13.0425    2.7476   23.1056 C   0  0  0  0  0  0  0  0  0  0  0  0
   12.7314    1.3953   22.9527 C   0  0  0  0  0  0  0  0  0  0  0  0
   11.4003    0.9847   22.8771 C   0  0  0  0  0  0  0  0  0  0  0  0
   10.9959   -0.8745   22.6323 Br  0  0  0  0  0  0  0  0  0  0  0  0
   10.3747    1.9303   22.9690 C   0  0  0  0  0  0  0  0  0  0  0  0
   10.6752    3.2914   23.1248 C   0  0  0  0  0  0  0  0  0  0  0  0
    9.3221    4.4108   23.2629 Cl  0  0  0  0  0  0  0  0  0  0  0  0
  1  2  3  0
  2  3  1  0
  3  4  1  1
  3  5  1  0
  5  6  2  0
  6  7  1  0
  7  8  2  0
  8  9  1  0
  8 10  1  0
 10 11  2  0
 11 12  1  0
 11  5  1  0
M  END
>  <Hit>  (173) 
Mpro-x0946_0

>  <Receptor>  (173) 
Mpro-x0305_0

>  <SCORE>  (173) 
-10.430999999999999

>  <SCORE.norm>  (173) 
-0.86925300000000005

>  <SCORE.heavy>  (173) 
12

>  <OrigSmiles>  (173) 
C#CC(N)c1ccc(Br)cc1Cl

>  <SuCOS_Score>  (173) 
0.51343538224816299

>  <Max_SuCOS_Score>  (173) 
0.51343538224816299

>  <Cum_SuCOS_Score>  (173) 
3.3486875162960175

>  <TransFSScore_50nM>  (173) 
0.019574999999999999

>  <TransFSScore_1uM>  (173) 
0.014985

>  <TransFSScore_10nM>  (173) 
0.0018420000000000001

>  <TransFSScore_200nM>  (173) 
0.041891999999999999

>  <TransFSScore>  (173) 
0.019573500000000001

>  <FeatureSteinScore>  (173) 
0.39725032652814279

$$$$
C#CC(N)c1ccc(Cl)c(S(N)(=O)=O)c1
     RDKit          3D

 15 15  0  0  0  0  0  0  0  0999 V2000
    6.4803   -1.1970   22.4601 C   0  0  0  0  0  0  0  0  0  0  0  0
    6.8673   -0.2968   21.7576 C   0  0  0  0  0  0  0  0  0  0  0  0
    7.3401    0.8037   20.8988 C   0  0  2  0  0  0  0  0  0  0  0  0
    7.8140    0.2833   19.6117 N   0  0  0  0  0  0  0  0  0  0  0  0
    8.4327    1.5882   21.5983 C   0  0  0  0  0  0  0  0  0  0  0  0
    9.7213    1.0524   21.7520 C   0  0  0  0  0  0  0  0  0  0  0  0
   10.7254    1.7872   22.3770 C   0  0  0  0  0  0  0  0  0  0  0  0
   10.4751    3.0716   22.8507 C   0  0  0  0  0  0  0  0  0  0  0  0
   11.8432    3.9026   23.5861 Cl  0  0  0  0  0  0  0  0  0  0  0  0
    9.1865    3.6267   22.7038 C   0  0  0  0  0  0  0  0  0  0  0  0
    8.8100    5.2598   23.1860 S   0  0  0  0  0  0  0  0  0  0  0  0
    9.9764    6.2807   22.4528 N   0  0  0  0  0  0  0  0  0  0  0  0
    7.4458    5.6268   22.6888 O   0  0  0  0  0  0  0  0  0  0  0  0
    8.8785    5.4282   24.6719 O   0  0  0  0  0  0  0  0  0  0  0  0
    8.1766    2.8824   22.0745 C   0  0  0  0  0  0  0  0  0  0  0  0
  1  2  3  0
  2  3  1  0
  3  4  1  6
  3  5  1  0
  5  6  2  0
  6  7  1  0
  7  8  2  0
  8  9  1  0
  8 10  1  0
 10 11  1  0
 10 15  2  0
 11 12  1  0
 11 13  2  0
 11 14  2  0
 15  5  1  0
M  END
>  <Hit>  (174) 
Mpro-x0946_0

>  <Receptor>  (174) 
Mpro-x0387_0

>  <SCORE>  (174) 
-10.1684

>  <SCORE.norm>  (174) 
-0.67789600000000005

>  <SCORE.heavy>  (174) 
15

>  <OrigSmiles>  (174) 
C#CC(N)c1ccc(Cl)c(S(N)(=O)=O)c1

>  <SuCOS_Score>  (174) 
0.23866945077992566

>  <Max_SuCOS_Score>  (174) 
0.23866945077992566

>  <Cum_SuCOS_Score>  (174) 
2.4862338029213866

>  <TransFSScore_50nM>  (174) 
0.11998300000000001

>  <TransFSScore_1uM>  (174) 
0.11816500000000001

>  <TransFSScore_10nM>  (174) 
0.021278999999999999

>  <TransFSScore_200nM>  (174) 
0.77040699999999995

>  <TransFSScore>  (174) 
0.25745849999999998

>  <FeatureSteinScore>  (174) 
0.096095348376478137

$$$$
C#CC(N)c1ccc(Cl)cc1Br
     RDKit          3D

 12 12  0  0  0  0  0  0  0  0999 V2000
    9.4803   -3.1755   24.9787 C   0  0  0  0  0  0  0  0  0  0  0  0
   10.0463   -2.7048   24.0239 C   0  0  0  0  0  0  0  0  0  0  0  0
   10.7396   -2.1292   22.8557 C   0  0  1  0  0  0  0  0  0  0  0  0
    9.8873   -2.2110   21.6649 N   0  0  0  0  0  0  0  0  0  0  0  0
   11.1453   -0.6862   23.1236 C   0  0  0  0  0  0  0  0  0  0  0  0
   10.2896    0.1441   23.8778 C   0  0  0  0  0  0  0  0  0  0  0  0
   10.6134    1.4809   24.1169 C   0  0  0  0  0  0  0  0  0  0  0  0
   11.7943    2.0143   23.5987 C   0  0  0  0  0  0  0  0  0  0  0  0
   12.2022    3.6939   23.8978 Cl  0  0  0  0  0  0  0  0  0  0  0  0
   12.6482    1.2130   22.8356 C   0  0  0  0  0  0  0  0  0  0  0  0
   12.3308   -0.1289   22.5845 C   0  0  0  0  0  0  0  0  0  0  0  0
   13.5423   -1.1413   21.4796 Br  0  0  0  0  0  0  0  0  0  0  0  0
  1  2  3  0
  2  3  1  0
  3  4  1  6
  3  5  1  0
  5  6  2  0
  6  7  1  0
  7  8  2  0
  8  9  1  0
  8 10  1  0
 10 11  2  0
 11 12  1  0
 11  5  1  0
M  END
>  <Hit>  (175) 
Mpro-x0946_0

>  <Receptor>  (175) 
Mpro-x1249_0

>  <SCORE>  (175) 
-13.844099999999999

>  <SCORE.norm>  (175) 
-1.15367

>  <SCORE.heavy>  (175) 
12

>  <OrigSmiles>  (175) 
C#CC(N)c1ccc(Cl)cc1Br

>  <SuCOS_Score>  (175) 
0.30985618268994386

>  <Max_SuCOS_Score>  (175) 
0.40951727179438774

>  <Cum_SuCOS_Score>  (175) 
4.9245934374669282

>  <TransFSScore_50nM>  (175) 
0.0045989999999999998

>  <TransFSScore_1uM>  (175) 
0.038712999999999997

>  <TransFSScore_10nM>  (175) 
0.0022060000000000001

>  <TransFSScore_200nM>  (175) 
0.10793700000000001

>  <TransFSScore>  (175) 
0.038363750000000002

>  <FeatureSteinScore>  (175) 
0.44265987945578

$$$$
C#CC(NC(=O)C1C2CNC1C2)C(C)C
     RDKit          3D

 15 16  0  0  0  0  0  0  0  0999 V2000
   10.2926   -4.5335   24.9894 C   0  0  0  0  0  0  0  0  0  0  0  0
   10.2863   -3.6545   24.1639 C   0  0  0  0  0  0  0  0  0  0  0  0
   10.2853   -2.5805   23.1523 C   0  0  2  0  0  0  0  0  0  0  0  0
   10.9231   -1.4094   23.7515 N   0  0  0  0  0  0  0  0  0  0  0  0
   11.6037   -0.4161   22.9706 C   0  0  0  0  0  0  0  0  0  0  0  0
   11.9094   -0.6477   21.7695 O   0  0  0  0  0  0  0  0  0  0  0  0
   12.0473    0.8794   23.6127 C   0  0  2  0  0  0  0  0  0  0  0  0
   10.9807    1.8207   24.1770 C   0  0  2  0  0  0  0  0  0  0  0  0
   10.0495    2.0038   22.9694 C   0  0  0  0  0  0  0  0  0  0  0  0
   11.0451    2.1982   21.8949 N   0  0  0  0  0  0  0  0  0  0  0  0
   12.2704    2.0975   22.7065 C   0  0  1  0  0  0  0  0  0  0  0  0
   11.9356    2.9783   23.9080 C   0  0  0  0  0  0  0  0  0  0  0  0
    8.8559   -2.2149   22.6269 C   0  0  0  0  0  0  0  0  0  0  0  0
    8.9553   -1.3109   21.3900 C   0  0  0  0  0  0  0  0  0  0  0  0
    7.9770   -3.4312   22.2728 C   0  0  0  0  0  0  0  0  0  0  0  0
  1  2  3  0
  3  2  1  1
  3  4  1  0
  3 13  1  0
  4  5  1  0
  5  6  2  0
  7  5  1  6
  7  8  1  0
  8  9  1  6
  9 10  1  0
 10 11  1  0
 11 12  1  1
 11  7  1  0
 12  8  1  0
 13 14  1  0
 13 15  1  0
M  END
>  <Hit>  (176) 
Mpro-x0991_0

>  <Receptor>  (176) 
Mpro-x0874_0

>  <SCORE>  (176) 
-10.317

>  <SCORE.norm>  (176) 
-0.68779800000000002

>  <SCORE.heavy>  (176) 
15

>  <OrigSmiles>  (176) 
C#CC(NC(=O)C1C2CNC1C2)C(C)C

>  <SuCOS_Score>  (176) 
0.23052522642830175

>  <Max_SuCOS_Score>  (176) 
0.3005108265363054

>  <Cum_SuCOS_Score>  (176) 
4.3576474964056269

>  <TransFSScore_50nM>  (176) 
0.0036589999999999999

>  <TransFSScore_1uM>  (176) 
0.046258000000000001

>  <TransFSScore_10nM>  (176) 
0.0091529999999999997

>  <TransFSScore_200nM>  (176) 
0.031244999999999998

>  <TransFSScore>  (176) 
0.022578750000000002

>  <FeatureSteinScore>  (176) 
0.32405261146778175

$$$$
C#CC(NC(=O)[C@H]1[C@@H]2C[C@H]1CN2)C(C)C
     RDKit          3D

 15 16  0  0  0  0  0  0  0  0999 V2000
   10.2155   -4.3470   24.9241 C   0  0  0  0  0  0  0  0  0  0  0  0
   10.1892   -3.4672   24.0998 C   0  0  0  0  0  0  0  0  0  0  0  0
   10.1562   -2.3956   23.0863 C   0  0  2  0  0  0  0  0  0  0  0  0
   10.7738   -1.2098   23.6778 N   0  0  0  0  0  0  0  0  0  0  0  0
   11.4532   -0.2193   22.8923 C   0  0  0  0  0  0  0  0  0  0  0  0
   11.7760   -0.4630   21.6980 O   0  0  0  0  0  0  0  0  0  0  0  0
   11.8751    1.0892   23.5227 C   0  0  1  0  0  0  0  0  0  0  0  0
   11.9671    2.3295   22.6240 C   0  0  2  0  0  0  0  0  0  0  0  0
   11.6766    3.1749   23.8618 C   0  0  0  0  0  0  0  0  0  0  0  0
   10.8056    1.9648   24.1795 C   0  0  1  0  0  0  0  0  0  0  0  0
    9.7795    2.1146   23.0465 C   0  0  0  0  0  0  0  0  0  0  0  0
   10.6818    2.3760   21.9058 N   0  0  0  0  0  0  0  0  0  0  0  0
    8.7148   -2.0619   22.5728 C   0  0  0  0  0  0  0  0  0  0  0  0
    8.7809   -1.0895   21.3866 C   0  0  0  0  0  0  0  0  0  0  0  0
    7.8888   -3.2929   22.1489 C   0  0  0  0  0  0  0  0  0  0  0  0
  1  2  3  0
  3  2  1  1
  3  4  1  0
  3 13  1  0
  4  5  1  0
  5  6  2  0
  7  5  1  6
  7  8  1  0
  8  9  1  1
 10  9  1  6
 10 11  1  0
 10  7  1  0
 11 12  1  0
 12  8  1  0
 13 14  1  0
 13 15  1  0
M  END
>  <Hit>  (177) 
Mpro-x0991_0

>  <Receptor>  (177) 
Mpro-x0874_0

>  <SCORE>  (177) 
-10.932499999999999

>  <SCORE.norm>  (177) 
-0.72883600000000004

>  <SCORE.heavy>  (177) 
15

>  <OrigSmiles>  (177) 
C#CC(NC(=O)[C@H]1[C@@H]2C[C@H]1CN2)C(C)C

>  <SuCOS_Score>  (177) 
0.21416816977922329

>  <Max_SuCOS_Score>  (177) 
0.31798184128966267

>  <Cum_SuCOS_Score>  (177) 
4.2940097291399386

>  <TransFSScore_50nM>  (177) 
0.0040949999999999997

>  <TransFSScore_1uM>  (177) 
0.0545

>  <TransFSScore_10nM>  (177) 
0.01678

>  <TransFSScore_200nM>  (177) 
0.077178999999999998

>  <TransFSScore>  (177) 
0.038138499999999999

>  <FeatureSteinScore>  (177) 
0.31781212717259233

$$$$
C#CC(NC)c1cc(Cl)cc(Br)c1
     RDKit          3D

 13 13  0  0  0  0  0  0  0  0999 V2000
   10.8577    6.3758   24.3521 C   0  0  0  0  0  0  0  0  0  0  0  0
   11.7229    5.5390   24.2824 C   0  0  0  0  0  0  0  0  0  0  0  0
   12.7830    4.5124   24.1953 C   0  0  2  0  0  0  0  0  0  0  0  0
   13.8635    4.9176   23.2692 N   0  0  0  0  0  0  0  0  0  0  0  0
   13.4063    5.2152   21.9042 C   0  0  0  0  0  0  0  0  0  0  0  0
   12.2318    3.1319   23.8674 C   0  0  0  0  0  0  0  0  0  0  0  0
   10.9204    2.8083   24.2565 C   0  0  0  0  0  0  0  0  0  0  0  0
   10.4029    1.5323   24.0050 C   0  0  0  0  0  0  0  0  0  0  0  0
    8.7648    1.1401   24.4947 Cl  0  0  0  0  0  0  0  0  0  0  0  0
   11.1899    0.5674   23.3650 C   0  0  0  0  0  0  0  0  0  0  0  0
   12.4978    0.8775   22.9766 C   0  0  0  0  0  0  0  0  0  0  0  0
   13.5816   -0.4207   22.0705 Br  0  0  0  0  0  0  0  0  0  0  0  0
   13.0197    2.1481   23.2358 C   0  0  0  0  0  0  0  0  0  0  0  0
  1  2  3  0
  3  2  1  6
  3  4  1  0
  3  6  1  0
  4  5  1  0
  6  7  2  0
  7  8  1  0
  8  9  1  0
  8 10  2  0
 10 11  1  0
 11 12  1  0
 11 13  2  0
 13  6  1  0
M  END
>  <Hit>  (178) 
Mpro-x0946_0

>  <Receptor>  (178) 
Mpro-x1249_0

>  <SCORE>  (178) 
-14.489000000000001

>  <SCORE.norm>  (178) 
-1.1145400000000001

>  <SCORE.heavy>  (178) 
13

>  <OrigSmiles>  (178) 
C#CC(NC)c1cc(Cl)cc(Br)c1

>  <SuCOS_Score>  (178) 
0.57819748758221223

>  <Max_SuCOS_Score>  (178) 
0.57819748758221223

>  <Cum_SuCOS_Score>  (178) 
3.746508417636687

>  <TransFSScore_50nM>  (178) 
0.005836

>  <TransFSScore_1uM>  (178) 
0.0089300000000000004

>  <TransFSScore_10nM>  (178) 
0.000415

>  <TransFSScore_200nM>  (178) 
0.0084799999999999997

>  <TransFSScore>  (178) 
0.0059152500000000004

>  <FeatureSteinScore>  (178) 
0.49482095868435366

$$$$
C#CC(NC1CCC1)c1ccccc1
     RDKit          3D

 14 15  0  0  0  0  0  0  0  0999 V2000
    8.9209   -3.4088   22.6430 C   0  0  0  0  0  0  0  0  0  0  0  0
    9.2506   -2.2749   22.3997 C   0  0  0  0  0  0  0  0  0  0  0  0
    9.6495   -0.8852   22.1014 C   0  0  2  0  0  0  0  0  0  0  0  0
    9.3017   -0.5003   20.7130 N   0  0  0  0  0  0  0  0  0  0  0  0
    7.8465   -0.5806   20.4588 C   0  0  0  0  0  0  0  0  0  0  0  0
    7.4413   -0.2394   19.0216 C   0  0  0  0  0  0  0  0  0  0  0  0
    6.6828    0.9804   19.5243 C   0  0  0  0  0  0  0  0  0  0  0  0
    7.0966    0.6577   20.9529 C   0  0  0  0  0  0  0  0  0  0  0  0
   11.1346   -0.7420   22.3713 C   0  0  0  0  0  0  0  0  0  0  0  0
   12.0810   -1.4963   21.6533 C   0  0  0  0  0  0  0  0  0  0  0  0
   13.4409   -1.3855   21.9470 C   0  0  0  0  0  0  0  0  0  0  0  0
   13.8698   -0.5368   22.9685 C   0  0  0  0  0  0  0  0  0  0  0  0
   12.9391    0.2035   23.6993 C   0  0  0  0  0  0  0  0  0  0  0  0
   11.5775    0.0998   23.4071 C   0  0  0  0  0  0  0  0  0  0  0  0
  1  2  3  0
  3  2  1  6
  3  4  1  0
  3  9  1  0
  4  5  1  0
  5  6  1  0
  6  7  1  0
  7  8  1  0
  8  5  1  0
  9 10  2  0
 10 11  1  0
 11 12  2  0
 12 13  1  0
 13 14  2  0
 14  9  1  0
M  END
>  <Hit>  (179) 
Mpro-x0072_0

>  <Receptor>  (179) 
Mpro-x0387_0

>  <SCORE>  (179) 
-10.536799999999999

>  <SCORE.norm>  (179) 
-0.75263000000000002

>  <SCORE.heavy>  (179) 
14

>  <OrigSmiles>  (179) 
C#CC(NC1CCC1)c1ccccc1

>  <SuCOS_Score>  (179) 
0.41396329160721013

>  <Max_SuCOS_Score>  (179) 
0.48013403532762766

>  <Cum_SuCOS_Score>  (179) 
5.3272851458031418

>  <TransFSScore_50nM>  (179) 
0.024573999999999999

>  <TransFSScore_1uM>  (179) 
0.42869600000000002

>  <TransFSScore_10nM>  (179) 
0.0090699999999999999

>  <TransFSScore_200nM>  (179) 
0.31390000000000001

>  <TransFSScore>  (179) 
0.19406000000000001

>  <FeatureSteinScore>  (179) 
0.4854427454316444

$$$$
C#CC(NCC1CCC1)c1ccccc1
     RDKit          3D

 15 16  0  0  0  0  0  0  0  0999 V2000
    8.6877   -0.8164   20.5854 C   0  0  0  0  0  0  0  0  0  0  0  0
    9.3061   -1.0777   21.5869 C   0  0  0  0  0  0  0  0  0  0  0  0
   10.0731   -1.3936   22.8086 C   0  0  1  0  0  0  0  0  0  0  0  0
   10.0090   -2.8410   23.1330 N   0  0  0  0  0  0  0  0  0  0  0  0
    8.9258   -3.1954   24.0728 C   0  0  0  0  0  0  0  0  0  0  0  0
    8.9823   -4.6695   24.5380 C   0  0  0  0  0  0  0  0  0  0  0  0
   10.2763   -5.0111   25.2799 C   0  0  0  0  0  0  0  0  0  0  0  0
    9.4812   -5.3106   26.5414 C   0  0  0  0  0  0  0  0  0  0  0  0
    8.1900   -4.9709   25.8131 C   0  0  0  0  0  0  0  0  0  0  0  0
   11.4962   -0.9018   22.6089 C   0  0  0  0  0  0  0  0  0  0  0  0
   12.3370   -1.5934   21.7193 C   0  0  0  0  0  0  0  0  0  0  0  0
   13.6649   -1.2000   21.5481 C   0  0  0  0  0  0  0  0  0  0  0  0
   14.1700   -0.1144   22.2644 C   0  0  0  0  0  0  0  0  0  0  0  0
   13.3514    0.5723   23.1628 C   0  0  0  0  0  0  0  0  0  0  0  0
   12.0260    0.1730   23.3497 C   0  0  0  0  0  0  0  0  0  0  0  0
  1  2  3  0
  3  2  1  6
  3  4  1  0
  3 10  1  0
  4  5  1  0
  5  6  1  0
  6  7  1  0
  7  8  1  0
  8  9  1  0
  9  6  1  0
 10 11  2  0
 11 12  1  0
 12 13  2  0
 13 14  1  0
 14 15  2  0
 15 10  1  0
M  END
>  <Hit>  (180) 
Mpro-x0072_0

>  <Receptor>  (180) 
Mpro-x1249_0

>  <SCORE>  (180) 
-10.7485

>  <SCORE.norm>  (180) 
-0.71656299999999995

>  <SCORE.heavy>  (180) 
15

>  <OrigSmiles>  (180) 
C#CC(NCC1CCC1)c1ccccc1

>  <SuCOS_Score>  (180) 
0.47411015726175637

>  <Max_SuCOS_Score>  (180) 
0.47411015726175637

>  <Cum_SuCOS_Score>  (180) 
5.130362390858819

>  <TransFSScore_50nM>  (180) 
0.0046379999999999998

>  <TransFSScore_1uM>  (180) 
0.45478000000000002

>  <TransFSScore_10nM>  (180) 
0.011428000000000001

>  <TransFSScore_200nM>  (180) 
0.067768999999999996

>  <TransFSScore>  (180) 
0.13465374999999999

>  <FeatureSteinScore>  (180) 
0.46842837745624638

$$$$
C#CC(NCCC)c1cc(Cl)cc(Br)c1
     RDKit          3D

 15 15  0  0  0  0  0  0  0  0999 V2000
   14.1293    5.6241   21.8718 C   0  0  0  0  0  0  0  0  0  0  0  0
   13.1558    5.4956   22.5713 C   0  0  0  0  0  0  0  0  0  0  0  0
   11.9666    5.3394   23.4260 C   0  0  1  0  0  0  0  0  0  0  0  0
   10.7811    5.9125   22.7622 N   0  0  0  0  0  0  0  0  0  0  0  0
    9.6769    6.1191   23.7112 C   0  0  0  0  0  0  0  0  0  0  0  0
    8.5506    6.9062   23.0360 C   0  0  0  0  0  0  0  0  0  0  0  0
    7.8846    6.0865   21.9347 C   0  0  0  0  0  0  0  0  0  0  0  0
   11.7572    3.8647   23.6998 C   0  0  0  0  0  0  0  0  0  0  0  0
   10.6229    3.4240   24.4060 C   0  0  0  0  0  0  0  0  0  0  0  0
   10.4313    2.0587   24.6476 C   0  0  0  0  0  0  0  0  0  0  0  0
    9.0179    1.5167   25.5336 Cl  0  0  0  0  0  0  0  0  0  0  0  0
   11.3624    1.1239   24.1781 C   0  0  0  0  0  0  0  0  0  0  0  0
   12.4870    1.5541   23.4642 C   0  0  0  0  0  0  0  0  0  0  0  0
   13.7521    0.2855   22.7779 Br  0  0  0  0  0  0  0  0  0  0  0  0
   12.6845    2.9185   23.2297 C   0  0  0  0  0  0  0  0  0  0  0  0
  1  2  3  0
  3  2  1  6
  3  4  1  0
  3  8  1  0
  4  5  1  0
  5  6  1  0
  6  7  1  0
  8  9  2  0
  9 10  1  0
 10 11  1  0
 10 12  2  0
 12 13  1  0
 13 14  1  0
 13 15  2  0
 15  8  1  0
M  END
>  <Hit>  (181) 
Mpro-x0946_0

>  <Receptor>  (181) 
Mpro-x1249_0

>  <SCORE>  (181) 
-10.819900000000001

>  <SCORE.norm>  (181) 
-0.721329

>  <SCORE.heavy>  (181) 
15

>  <OrigSmiles>  (181) 
C#CC(NCCC)c1cc(Cl)cc(Br)c1

>  <SuCOS_Score>  (181) 
0.57731679560966098

>  <Max_SuCOS_Score>  (181) 
0.57731679560966098

>  <Cum_SuCOS_Score>  (181) 
3.2289116238088655

>  <TransFSScore_50nM>  (181) 
0.001059

>  <TransFSScore_1uM>  (181) 
0.0043410000000000002

>  <TransFSScore_10nM>  (181) 
5.3000000000000001e-05

>  <TransFSScore_200nM>  (181) 
0.0047330000000000002

>  <TransFSScore>  (181) 
0.0025465000000000002

>  <FeatureSteinScore>  (181) 
0.39405937897421339

$$$$
C#CC(NCc1ccccc1)C1CCC1
     RDKit          3D

 15 16  0  0  0  0  0  0  0  0999 V2000
    6.7947   -0.1522   23.3230 C   0  0  0  0  0  0  0  0  0  0  0  0
    7.2886   -0.4161   22.2553 C   0  0  0  0  0  0  0  0  0  0  0  0
    7.8950   -0.7397   20.9438 C   0  0  2  0  0  0  0  0  0  0  0  0
    9.3702   -0.6572   21.0489 N   0  0  0  0  0  0  0  0  0  0  0  0
    9.9138   -1.5367   22.0991 C   0  0  0  0  0  0  0  0  0  0  0  0
   11.3479   -1.1804   22.3939 C   0  0  0  0  0  0  0  0  0  0  0  0
   12.3838   -1.7408   21.6312 C   0  0  0  0  0  0  0  0  0  0  0  0
   13.7129   -1.4072   21.8991 C   0  0  0  0  0  0  0  0  0  0  0  0
   14.0151   -0.5032   22.9201 C   0  0  0  0  0  0  0  0  0  0  0  0
   12.9877    0.0725   23.6717 C   0  0  0  0  0  0  0  0  0  0  0  0
   11.6567   -0.2605   23.4081 C   0  0  0  0  0  0  0  0  0  0  0  0
    7.3399    0.1706   19.8053 C   0  0  0  0  0  0  0  0  0  0  0  0
    5.8446    0.0314   19.5088 C   0  0  0  0  0  0  0  0  0  0  0  0
    6.1709   -0.4347   18.0953 C   0  0  0  0  0  0  0  0  0  0  0  0
    7.6608   -0.2947   18.3824 C   0  0  0  0  0  0  0  0  0  0  0  0
  1  2  3  0
  3  2  1  1
  3  4  1  0
  3 12  1  0
  4  5  1  0
  5  6  1  0
  6  7  2  0
  7  8  1  0
  8  9  2  0
  9 10  1  0
 10 11  2  0
 11  6  1  0
 12 13  1  0
 13 14  1  0
 14 15  1  0
 15 12  1  0
M  END
>  <Hit>  (182) 
Mpro-x0072_0

>  <Receptor>  (182) 
Mpro-x0387_0

>  <SCORE>  (182) 
-11.092499999999999

>  <SCORE.norm>  (182) 
-0.73950300000000002

>  <SCORE.heavy>  (182) 
15

>  <OrigSmiles>  (182) 
C#CC(NCc1ccccc1)C1CCC1

>  <SuCOS_Score>  (182) 
0.29665770799684377

>  <Max_SuCOS_Score>  (182) 
0.42249720244927486

>  <Cum_SuCOS_Score>  (182) 
5.2447143743775593

>  <TransFSScore_50nM>  (182) 
0.01729

>  <TransFSScore_1uM>  (182) 
0.47007700000000002

>  <TransFSScore_10nM>  (182) 
0.0021700000000000001

>  <TransFSScore_200nM>  (182) 
0.080379999999999993

>  <TransFSScore>  (182) 
0.14247925

>  <FeatureSteinScore>  (182) 
0.39954883764817628

$$$$
C#CC(NN)c1cc(Cl)cc(Br)c1
     RDKit          3D

 13 13  0  0  0  0  0  0  0  0999 V2000
   12.8919    4.6617   20.8742 C   0  0  0  0  0  0  0  0  0  0  0  0
   12.4418    4.2431   21.9114 C   0  0  0  0  0  0  0  0  0  0  0  0
   11.8904    3.7305   23.1821 C   0  0  2  0  0  0  0  0  0  0  0  0
   12.8230    3.9523   24.2985 N   0  0  0  0  0  0  0  0  0  0  0  0
   12.9930    5.3378   24.4843 N   0  0  0  0  0  0  0  0  0  0  0  0
   11.5789    2.2548   23.0598 C   0  0  0  0  0  0  0  0  0  0  0  0
   10.2616    1.7827   23.2140 C   0  0  0  0  0  0  0  0  0  0  0  0
    9.9840    0.4166   23.0883 C   0  0  0  0  0  0  0  0  0  0  0  0
    8.3411   -0.1645   23.2896 Cl  0  0  0  0  0  0  0  0  0  0  0  0
   11.0134   -0.4868   22.7977 C   0  0  0  0  0  0  0  0  0  0  0  0
   12.3238   -0.0242   22.6314 C   0  0  0  0  0  0  0  0  0  0  0  0
   13.7408   -1.2415   22.1933 Br  0  0  0  0  0  0  0  0  0  0  0  0
   12.6050    1.3389   22.7658 C   0  0  0  0  0  0  0  0  0  0  0  0
  1  2  3  0
  3  2  1  6
  3  4  1  0
  3  6  1  0
  4  5  1  0
  6  7  2  0
  7  8  1  0
  8  9  1  0
  8 10  2  0
 10 11  1  0
 11 12  1  0
 11 13  2  0
 13  6  1  0
M  END
>  <Hit>  (183) 
Mpro-x0946_0

>  <Receptor>  (183) 
Mpro-x0305_0

>  <SCORE>  (183) 
-13.3155

>  <SCORE.norm>  (183) 
-1.02427

>  <SCORE.heavy>  (183) 
13

>  <OrigSmiles>  (183) 
C#CC(NN)c1cc(Cl)cc(Br)c1

>  <SuCOS_Score>  (183) 
0.35124890178164414

>  <Max_SuCOS_Score>  (183) 
0.40450341033386866

>  <Cum_SuCOS_Score>  (183) 
3.9816305001665726

>  <TransFSScore_50nM>  (183) 
0.0077250000000000001

>  <TransFSScore_1uM>  (183) 
0.037010000000000001

>  <TransFSScore_10nM>  (183) 
0.00064000000000000005

>  <TransFSScore_200nM>  (183) 
0.023167

>  <TransFSScore>  (183) 
0.017135500000000001

>  <FeatureSteinScore>  (183) 
0.35371805875087253

$$$$
C#CC(NN)c1ccc(Br)cc1Cl
     RDKit          3D

 13 13  0  0  0  0  0  0  0  0999 V2000
   12.8894    6.1552   25.3472 C   0  0  0  0  0  0  0  0  0  0  0  0
   12.3001    5.7015   24.3980 C   0  0  0  0  0  0  0  0  0  0  0  0
   11.5787    5.1450   23.2378 C   0  0  1  0  0  0  0  0  0  0  0  0
   12.0035    5.8103   21.9947 N   0  0  0  0  0  0  0  0  0  0  0  0
   13.2527    5.3060   21.5800 N   0  0  0  0  0  0  0  0  0  0  0  0
   11.6990    3.6247   23.1444 C   0  0  0  0  0  0  0  0  0  0  0  0
   12.9641    3.0016   23.1872 C   0  0  0  0  0  0  0  0  0  0  0  0
   13.0850    1.6164   23.0620 C   0  0  0  0  0  0  0  0  0  0  0  0
   11.9514    0.8258   22.8735 C   0  0  0  0  0  0  0  0  0  0  0  0
   12.1458   -1.0701   22.6546 Br  0  0  0  0  0  0  0  0  0  0  0  0
   10.6888    1.4230   22.8177 C   0  0  0  0  0  0  0  0  0  0  0  0
   10.5553    2.8132   22.9433 C   0  0  0  0  0  0  0  0  0  0  0  0
    8.9350    3.4923   22.8121 Cl  0  0  0  0  0  0  0  0  0  0  0  0
  1  2  3  0
  3  2  1  1
  3  4  1  0
  3  6  1  0
  4  5  1  0
  6  7  2  0
  7  8  1  0
  8  9  2  0
  9 10  1  0
  9 11  1  0
 11 12  2  0
 12 13  1  0
 12  6  1  0
M  END
>  <Hit>  (184) 
Mpro-x0946_0

>  <Receptor>  (184) 
Mpro-x0305_0

>  <SCORE>  (184) 
-10.0745

>  <SCORE.norm>  (184) 
-0.77495899999999995

>  <SCORE.heavy>  (184) 
13

>  <OrigSmiles>  (184) 
C#CC(NN)c1ccc(Br)cc1Cl

>  <SuCOS_Score>  (184) 
0.5656974465230431

>  <Max_SuCOS_Score>  (184) 
0.5656974465230431

>  <Cum_SuCOS_Score>  (184) 
3.5515999109130298

>  <TransFSScore_50nM>  (184) 
0.0047229999999999998

>  <TransFSScore_1uM>  (184) 
0.010751

>  <TransFSScore_10nM>  (184) 
0.0043010000000000001

>  <TransFSScore_200nM>  (184) 
0.28493600000000002

>  <TransFSScore>  (184) 
0.076177750000000002

>  <FeatureSteinScore>  (184) 
0.44374208797132575

$$$$
C#CC(NN)c1ccc(Cl)cc1Br
     RDKit          3D

 13 13  0  0  0  0  0  0  0  0999 V2000
    9.4295   -2.9598   25.0022 C   0  0  0  0  0  0  0  0  0  0  0  0
   10.0140   -2.5440   24.0329 C   0  0  0  0  0  0  0  0  0  0  0  0
   10.7374   -2.0400   22.8523 C   0  0  1  0  0  0  0  0  0  0  0  0
    9.9288   -2.2029   21.6299 N   0  0  0  0  0  0  0  0  0  0  0  0
    8.7395   -1.4527   21.7482 N   0  0  0  0  0  0  0  0  0  0  0  0
   11.1888   -0.5954   23.0547 C   0  0  0  0  0  0  0  0  0  0  0  0
   10.3414    0.2619   23.7843 C   0  0  0  0  0  0  0  0  0  0  0  0
   10.6956    1.5900   24.0269 C   0  0  0  0  0  0  0  0  0  0  0  0
   11.9116    2.0835   23.5547 C   0  0  0  0  0  0  0  0  0  0  0  0
   12.3606    3.7507   23.8645 Cl  0  0  0  0  0  0  0  0  0  0  0  0
   12.7719    1.2507   22.8339 C   0  0  0  0  0  0  0  0  0  0  0  0
   12.4237   -0.0827   22.5743 C   0  0  0  0  0  0  0  0  0  0  0  0
   13.6648   -1.1289   21.5343 Br  0  0  0  0  0  0  0  0  0  0  0  0
  1  2  3  0
  3  2  1  1
  3  4  1  0
  3  6  1  0
  4  5  1  0
  6  7  2  0
  7  8  1  0
  8  9  2  0
  9 10  1  0
  9 11  1  0
 11 12  2  0
 12 13  1  0
 12  6  1  0
M  END
>  <Hit>  (185) 
Mpro-x0946_0

>  <Receptor>  (185) 
Mpro-x1249_0

>  <SCORE>  (185) 
-11.417400000000001

>  <SCORE.norm>  (185) 
-0.87825900000000001

>  <SCORE.heavy>  (185) 
13

>  <OrigSmiles>  (185) 
C#CC(NN)c1ccc(Cl)cc1Br

>  <SuCOS_Score>  (185) 
0.32385132149126655

>  <Max_SuCOS_Score>  (185) 
0.42145562724026564

>  <Cum_SuCOS_Score>  (185) 
5.1973626895548701

>  <TransFSScore_50nM>  (185) 
0.003614

>  <TransFSScore_1uM>  (185) 
0.028947000000000001

>  <TransFSScore_10nM>  (185) 
0.017416999999999998

>  <TransFSScore_200nM>  (185) 
0.25304900000000002

>  <TransFSScore>  (185) 
0.075756750000000012

>  <FeatureSteinScore>  (185) 
0.49214969575894907

$$$$
C#CC(Nc1ncc(C#N)cc1Cl)C(C)C
     RDKit          3D

 16 16  0  0  0  0  0  0  0  0999 V2000
    7.6451   -0.9080   24.5031 C   0  0  0  0  0  0  0  0  0  0  0  0
    8.3621   -0.8657   25.4715 C   0  0  0  0  0  0  0  0  0  0  0  0
    9.2420   -0.8118   26.6634 C   0  0  1  0  0  0  0  0  0  0  0  0
   10.6187   -0.5703   26.1853 N   0  0  0  0  0  0  0  0  0  0  0  0
   11.0339   -0.7025   24.8068 C   0  0  0  0  0  0  0  0  0  0  0  0
   11.8841    0.2537   24.3060 N   0  0  0  0  0  0  0  0  0  0  0  0
   12.6757    0.0305   23.2223 C   0  0  0  0  0  0  0  0  0  0  0  0
   12.5714   -1.1639   22.5120 C   0  0  0  0  0  0  0  0  0  0  0  0
   13.4244   -1.4397   21.3789 C   0  0  0  0  0  0  0  0  0  0  0  0
   14.1039   -1.6668   20.4695 N   0  0  0  0  0  0  0  0  0  0  0  0
   11.6762   -2.1263   22.9484 C   0  0  0  0  0  0  0  0  0  0  0  0
   11.0156   -1.9631   24.1560 C   0  0  0  0  0  0  0  0  0  0  0  0
   10.9240   -3.4977   25.0115 Cl  0  0  0  0  0  0  0  0  0  0  0  0
    8.6064    0.0771   27.7806 C   0  0  0  0  0  0  0  0  0  0  0  0
    7.2828   -0.4950   28.3419 C   0  0  0  0  0  0  0  0  0  0  0  0
    9.5915    0.2523   28.9517 C   0  0  0  0  0  0  0  0  0  0  0  0
  1  2  3  0
  3  2  1  6
  3  4  1  0
  3 14  1  0
  4  5  1  0
  5  6  2  0
  6  7  1  0
  7  8  2  0
  8  9  1  0
  8 11  1  0
  9 10  3  0
 11 12  2  0
 12 13  1  0
 12  5  1  0
 14 15  1  0
 14 16  1  0
M  END
>  <Hit>  (186) 
Mpro-x0305_0

>  <Receptor>  (186) 
Mpro-x0387_0

>  <SCORE>  (186) 
-14.3636

>  <SCORE.norm>  (186) 
-0.89772600000000002

>  <SCORE.heavy>  (186) 
16

>  <OrigSmiles>  (186) 
C#CC(Nc1ncc(C#N)cc1Cl)C(C)C

>  <SuCOS_Score>  (186) 
0.8550598213118632

>  <Max_SuCOS_Score>  (186) 
0.8550598213118632

>  <Cum_SuCOS_Score>  (186) 
4.3914365814709742

>  <TransFSScore_50nM>  (186) 
0.010876

>  <TransFSScore_1uM>  (186) 
0.090074000000000001

>  <TransFSScore_10nM>  (186) 
0.0077739999999999997

>  <TransFSScore_200nM>  (186) 
0.28771799999999997

>  <TransFSScore>  (186) 
0.09911049999999999

>  <FeatureSteinScore>  (186) 
0.2924274572982335

$$$$
C#CC(O)C12CCC(CC1)N2
     RDKit          3D

 11 12  0  0  0  0  0  0  0  0999 V2000
    7.4542   -4.7777   24.6872 C   0  0  0  0  0  0  0  0  0  0  0  0
    7.5568   -3.9311   23.8350 C   0  0  0  0  0  0  0  0  0  0  0  0
    7.6807   -2.8979   22.7921 C   0  0  2  0  0  0  0  0  0  0  0  0
    7.9143   -3.5295   21.5607 O   0  0  0  0  0  0  0  0  0  0  0  0
    8.8243   -1.9106   23.1280 C   0  0  1  0  0  0  0  0  0  0  0  0
    8.7958   -0.6059   22.2957 C   0  0  0  0  0  0  0  0  0  0  0  0
   10.2560   -0.1556   22.3937 C   0  0  0  0  0  0  0  0  0  0  0  0
   10.8633   -1.2772   23.2566 C   0  0  1  0  0  0  0  0  0  0  0  0
   10.4004   -1.0850   24.7080 C   0  0  0  0  0  0  0  0  0  0  0  0
    8.9362   -1.5350   24.6222 C   0  0  0  0  0  0  0  0  0  0  0  0
   10.1389   -2.4693   22.8516 N   0  0  0  0  0  0  0  0  0  0  0  0
  1  2  3  0
  2  3  1  0
  3  4  1  6
  5  3  1  0
  5  6  1  6
  6  7  1  0
  8  7  1  6
  8  9  1  0
  8 11  1  0
  9 10  1  0
 10  5  1  0
 11  5  1  0
M  END
>  <Hit>  (187) 
Mpro-x0991_0

>  <Receptor>  (187) 
Mpro-x0305_0

>  <SCORE>  (187) 
-0.043957700000000002

>  <SCORE.norm>  (187) 
-0.0039961500000000004

>  <SCORE.heavy>  (187) 
11

>  <OrigSmiles>  (187) 
C#CC(O)C12CCC(CC1)N2

>  <SuCOS_Score>  (187) 
0.32011457349422834

>  <Max_SuCOS_Score>  (187) 
0.32011457349422834

>  <Cum_SuCOS_Score>  (187) 
2.9734955160399617

>  <TransFSScore_50nM>  (187) 
0.013901999999999999

>  <TransFSScore_1uM>  (187) 
0.133183

>  <TransFSScore_10nM>  (187) 
0.0024229999999999998

>  <TransFSScore_200nM>  (187) 
0.21800600000000001

>  <TransFSScore>  (187) 
0.091878500000000002

>  <FeatureSteinScore>  (187) 
0.50711240374657918

$$$$
C#CC(O)C1CC2CCC1N2
     RDKit          3D

 11 12  0  0  0  0  0  0  0  0999 V2000
   10.0115   -2.9006   22.8797 C   0  0  0  0  0  0  0  0  0  0  0  0
    9.2779   -3.6338   23.4939 C   0  0  0  0  0  0  0  0  0  0  0  0
    8.3812   -4.5339   24.2467 C   0  0  2  0  0  0  0  0  0  0  0  0
    7.0660   -4.0393   24.2070 O   0  0  0  0  0  0  0  0  0  0  0  0
    8.8564   -4.6962   25.7130 C   0  0  1  0  0  0  0  0  0  0  0  0
    8.5129   -3.4872   26.6063 C   0  0  0  0  0  0  0  0  0  0  0  0
    7.8161   -4.1760   27.7970 C   0  0  1  0  0  0  0  0  0  0  0  0
    6.3977   -4.5828   27.3535 C   0  0  0  0  0  0  0  0  0  0  0  0
    6.6931   -5.8110   26.4834 C   0  0  0  0  0  0  0  0  0  0  0  0
    8.2343   -5.8589   26.5372 C   0  0  2  0  0  0  0  0  0  0  0  0
    8.5107   -5.4506   27.9063 N   0  0  0  0  0  0  0  0  0  0  0  0
  1  2  3  0
  2  3  1  0
  3  4  1  1
  5  3  1  0
  5  6  1  1
  7  6  1  6
  7  8  1  0
  8  9  1  0
 10  9  1  1
 10 11  1  0
 10  5  1  0
 11  7  1  0
M  END
>  <Hit>  (188) 
Mpro-x0991_0

>  <Receptor>  (188) 
Mpro-x0305_0

>  <SCORE>  (188) 
-0.35074899999999998

>  <SCORE.norm>  (188) 
-0.031886299999999999

>  <SCORE.heavy>  (188) 
11

>  <OrigSmiles>  (188) 
C#CC(O)C1CC2CCC1N2

>  <SuCOS_Score>  (188) 
0.41556205654746314

>  <Max_SuCOS_Score>  (188) 
0.41556205654746314

>  <Cum_SuCOS_Score>  (188) 
1.8317242010445562

>  <TransFSScore_50nM>  (188) 
0.0032680000000000001

>  <TransFSScore_1uM>  (188) 
0.083881999999999998

>  <TransFSScore_10nM>  (188) 
0.0026830000000000001

>  <TransFSScore_200nM>  (188) 
0.027591999999999998

>  <TransFSScore>  (188) 
0.02935625

>  <FeatureSteinScore>  (188) 
0.39778281421720091

$$$$
C#CC(O)CC12CCC(CC1)N2
     RDKit          3D

 12 13  0  0  0  0  0  0  0  0999 V2000
   10.4411   -5.1781   25.3995 C   0  0  0  0  0  0  0  0  0  0  0  0
    9.9247   -4.3653   24.6740 C   0  0  0  0  0  0  0  0  0  0  0  0
    9.2947   -3.3708   23.7846 C   0  0  2  0  0  0  0  0  0  0  0  0
    8.4178   -4.0057   22.8917 O   0  0  0  0  0  0  0  0  0  0  0  0
   10.3585   -2.5438   23.0291 C   0  0  0  0  0  0  0  0  0  0  0  0
    9.8881   -1.2143   22.3788 C   0  0  1  0  0  0  0  0  0  0  0  0
    8.6292   -1.4152   21.4992 C   0  0  0  0  0  0  0  0  0  0  0  0
    8.7262   -0.2203   20.5481 C   0  0  0  0  0  0  0  0  0  0  0  0
   10.0103    0.4602   21.0516 C   0  0  1  0  0  0  0  0  0  0  0  0
    9.6990    1.1569   22.3843 C   0  0  0  0  0  0  0  0  0  0  0  0
    9.6133   -0.0392   23.3425 C   0  0  0  0  0  0  0  0  0  0  0  0
   10.8623   -0.6444   21.4606 N   0  0  0  0  0  0  0  0  0  0  0  0
  1  2  3  0
  2  3  1  0
  3  4  1  6
  3  5  1  0
  6  5  1  1
  6  7  1  0
  7  8  1  0
  9  8  1  1
  9 10  1  0
  9 12  1  0
 10 11  1  0
 11  6  1  0
 12  6  1  0
M  END
>  <Hit>  (189) 
Mpro-x0991_0

>  <Receptor>  (189) 
Mpro-x1249_0

>  <SCORE>  (189) 
-10.337199999999999

>  <SCORE.norm>  (189) 
-0.86143099999999995

>  <SCORE.heavy>  (189) 
12

>  <OrigSmiles>  (189) 
C#CC(O)CC12CCC(CC1)N2

>  <SuCOS_Score>  (189) 
0.2926694667136211

>  <Max_SuCOS_Score>  (189) 
0.2926694667136211

>  <Cum_SuCOS_Score>  (189) 
3.24484646109872

>  <TransFSScore_50nM>  (189) 
0.029170999999999999

>  <TransFSScore_1uM>  (189) 
0.34110400000000002

>  <TransFSScore_10nM>  (189) 
0.019512000000000002

>  <TransFSScore_200nM>  (189) 
0.346132

>  <TransFSScore>  (189) 
0.18397975

>  <FeatureSteinScore>  (189) 
0.34448194200325138

$$$$
C#CC(O)[C@@H]1C[C@@H]2CC[C@H]1N2
     RDKit          3D

 11 12  0  0  0  0  0  0  0  0999 V2000
    8.6024   -5.8409   23.5124 C   0  0  0  0  0  0  0  0  0  0  0  0
    8.5282   -4.6391   23.5717 C   0  0  0  0  0  0  0  0  0  0  0  0
    8.4375   -3.1686   23.6470 C   0  0  1  0  0  0  0  0  0  0  0  0
    9.1274   -2.7242   24.7856 O   0  0  0  0  0  0  0  0  0  0  0  0
    9.0727   -2.5247   22.3942 C   0  0  2  0  0  0  0  0  0  0  0  0
    9.8957   -1.2583   22.7060 C   0  0  0  0  0  0  0  0  0  0  0  0
    9.2972   -0.2511   21.7035 C   0  0  2  0  0  0  0  0  0  0  0  0
    7.9212    0.1949   22.2345 C   0  0  0  0  0  0  0  0  0  0  0  0
    7.0597   -1.0325   21.9115 C   0  0  0  0  0  0  0  0  0  0  0  0
    8.1066   -1.9870   21.3005 C   0  0  1  0  0  0  0  0  0  0  0  0
    8.9602   -1.0764   20.5529 N   0  0  0  0  0  0  0  0  0  0  0  0
  1  2  3  0
  2  3  1  0
  3  4  1  1
  5  3  1  0
  5  6  1  1
  7  6  1  1
  7  8  1  0
  8  9  1  0
 10  9  1  1
 10 11  1  0
 10  5  1  0
 11  7  1  0
M  END
>  <Hit>  (190) 
Mpro-x0991_0

>  <Receptor>  (190) 
Mpro-x0387_0

>  <SCORE>  (190) 
-0.52104899999999998

>  <SCORE.norm>  (190) 
-0.047368100000000003

>  <SCORE.heavy>  (190) 
11

>  <OrigSmiles>  (190) 
C#CC(O)[C@@H]1C[C@@H]2CC[C@H]1N2

>  <SuCOS_Score>  (190) 
0.36025467035350145

>  <Max_SuCOS_Score>  (190) 
0.36025467035350145

>  <Cum_SuCOS_Score>  (190) 
2.749316643697477

>  <TransFSScore_50nM>  (190) 
0.019139

>  <TransFSScore_1uM>  (190) 
0.15316399999999999

>  <TransFSScore_10nM>  (190) 
0.011216

>  <TransFSScore_200nM>  (190) 
0.20974799999999999

>  <TransFSScore>  (190) 
0.098316749999999994

>  <FeatureSteinScore>  (190) 
0.55961268770603245

$$$$
C#CC(O)c1c(Cl)cccc1Br
     RDKit          3D

 12 12  0  0  0  0  0  0  0  0999 V2000
   13.4502    5.7364   21.5670 C   0  0  0  0  0  0  0  0  0  0  0  0
   13.2122    4.9150   22.4169 C   0  0  0  0  0  0  0  0  0  0  0  0
   12.9216    3.9139   23.4559 C   0  0  1  0  0  0  0  0  0  0  0  0
   12.7833    4.5348   24.7074 O   0  0  0  0  0  0  0  0  0  0  0  0
   11.6493    3.1529   23.1072 C   0  0  0  0  0  0  0  0  0  0  0  0
   10.4193    3.8421   22.9515 C   0  0  0  0  0  0  0  0  0  0  0  0
   10.2639    5.5866   23.1579 Cl  0  0  0  0  0  0  0  0  0  0  0  0
    9.2527    3.1427   22.6298 C   0  0  0  0  0  0  0  0  0  0  0  0
    9.2814    1.7585   22.4731 C   0  0  0  0  0  0  0  0  0  0  0  0
   10.4794    1.0593   22.6295 C   0  0  0  0  0  0  0  0  0  0  0  0
   11.6636    1.7431   22.9401 C   0  0  0  0  0  0  0  0  0  0  0  0
   13.2902    0.7196   23.1113 Br  0  0  0  0  0  0  0  0  0  0  0  0
  1  2  3  0
  2  3  1  0
  3  4  1  1
  3  5  1  0
  5  6  2  0
  6  7  1  0
  6  8  1  0
  8  9  2  0
  9 10  1  0
 10 11  2  0
 11 12  1  0
 11  5  1  0
M  END
>  <Hit>  (191) 
Mpro-x0946_0

>  <Receptor>  (191) 
Mpro-x0305_0

>  <SCORE>  (191) 
-10.881600000000001

>  <SCORE.norm>  (191) 
-0.90680300000000003

>  <SCORE.heavy>  (191) 
12

>  <OrigSmiles>  (191) 
C#CC(O)c1c(Cl)cccc1Br

>  <SuCOS_Score>  (191) 
0.40396622255737002

>  <Max_SuCOS_Score>  (191) 
0.40396622255737002

>  <Cum_SuCOS_Score>  (191) 
2.7379622655042182

>  <TransFSScore_50nM>  (191) 
0.001134

>  <TransFSScore_1uM>  (191) 
0.018502999999999999

>  <TransFSScore_10nM>  (191) 
0.00035399999999999999

>  <TransFSScore_200nM>  (191) 
0.026908000000000001

>  <TransFSScore>  (191) 
0.011724749999999999

>  <FeatureSteinScore>  (191) 
0.24014900551827323

$$$$
C#CC(O)c1ccc(Br)cc1Cl
     RDKit          3D

 12 12  0  0  0  0  0  0  0  0999 V2000
   12.6557    6.4663   25.3665 C   0  0  0  0  0  0  0  0  0  0  0  0
   11.9570    6.0151   24.4937 C   0  0  0  0  0  0  0  0  0  0  0  0
   11.1024    5.4633   23.4263 C   0  0  1  0  0  0  0  0  0  0  0  0
   11.2768    6.1843   22.2330 O   0  0  0  0  0  0  0  0  0  0  0  0
   11.3713    3.9828   23.2022 C   0  0  0  0  0  0  0  0  0  0  0  0
   10.3014    3.0646   23.2518 C   0  0  0  0  0  0  0  0  0  0  0  0
   10.5222    1.6949   23.0768 C   0  0  0  0  0  0  0  0  0  0  0  0
   11.8173    1.2172   22.8617 C   0  0  0  0  0  0  0  0  0  0  0  0
   12.1356   -0.6548   22.5884 Br  0  0  0  0  0  0  0  0  0  0  0  0
   12.8907    2.1090   22.8349 C   0  0  0  0  0  0  0  0  0  0  0  0
   12.6815    3.4828   23.0078 C   0  0  0  0  0  0  0  0  0  0  0  0
   14.0986    4.5295   22.9898 Cl  0  0  0  0  0  0  0  0  0  0  0  0
  1  2  3  0
  2  3  1  0
  3  4  1  6
  3  5  1  0
  5  6  2  0
  6  7  1  0
  7  8  2  0
  8  9  1  0
  8 10  1  0
 10 11  2  0
 11 12  1  0
 11  5  1  0
M  END
>  <Hit>  (192) 
Mpro-x0946_0

>  <Receptor>  (192) 
Mpro-x0305_0

>  <SCORE>  (192) 
-10.126300000000001

>  <SCORE.norm>  (192) 
-0.84386099999999997

>  <SCORE.heavy>  (192) 
12

>  <OrigSmiles>  (192) 
C#CC(O)c1ccc(Br)cc1Cl

>  <SuCOS_Score>  (192) 
0.53773311596045326

>  <Max_SuCOS_Score>  (192) 
0.53773311596045326

>  <Cum_SuCOS_Score>  (192) 
3.2095258457452251

>  <TransFSScore_50nM>  (192) 
0.001797

>  <TransFSScore_1uM>  (192) 
0.021101999999999999

>  <TransFSScore_10nM>  (192) 
0.000825

>  <TransFSScore_200nM>  (192) 
0.027342000000000002

>  <TransFSScore>  (192) 
0.0127665

>  <FeatureSteinScore>  (192) 
0.51656173386495763

$$$$
C#CC1(O)CCN(C(=O)c2cccs2)CC1
     RDKit          3D

 16 17  0  0  0  0  0  0  0  0999 V2000
    8.5761   -2.3252   28.6050 C   0  0  0  0  0  0  0  0  0  0  0  0
    8.7821   -3.4375   28.1840 C   0  0  0  0  0  0  0  0  0  0  0  0
    9.0296   -4.8216   27.6827 C   0  0  0  0  0  0  0  0  0  0  0  0
    9.1746   -5.4878   28.8650 O   0  0  0  0  0  0  0  0  0  0  0  0
   10.3112   -4.8901   26.8691 C   0  0  0  0  0  0  0  0  0  0  0  0
   10.2496   -3.7771   25.8285 C   0  0  0  0  0  0  0  0  0  0  0  0
    8.8820   -3.5360   25.2965 N   0  0  0  0  0  0  0  0  0  0  0  0
    8.8567   -2.8438   24.0495 C   0  0  0  0  0  0  0  0  0  0  0  0
    7.7628   -2.6771   23.4420 O   0  0  0  0  0  0  0  0  0  0  0  0
   10.0710   -2.3121   23.4239 C   0  0  0  0  0  0  0  0  0  0  0  0
   11.1948   -1.8238   24.0819 C   0  0  0  0  0  0  0  0  0  0  0  0
   12.1492   -1.2807   23.2135 C   0  0  0  0  0  0  0  0  0  0  0  0
   11.7715   -1.3149   21.8775 C   0  0  0  0  0  0  0  0  0  0  0  0
   10.2461   -2.0156   21.7787 S   0  0  0  0  0  0  0  0  0  0  0  0
    8.0093   -4.7327   25.3326 C   0  0  0  0  0  0  0  0  0  0  0  0
    7.8536   -5.2691   26.7860 C   0  0  0  0  0  0  0  0  0  0  0  0
  1  2  3  0
  2  3  1  0
  3  4  1  0
  3  5  1  0
  5  6  1  0
  6  7  1  0
  7  8  1  0
  7 15  1  0
  8  9  2  0
  8 10  1  0
 10 11  2  0
 11 12  1  0
 12 13  2  0
 13 14  1  0
 14 10  1  0
 15 16  1  0
 16  3  1  0
M  END
>  <Hit>  (193) 
Mpro-x0387_0

>  <Receptor>  (193) 
Mpro-x0387_0

>  <SCORE>  (193) 
-10.26

>  <SCORE.norm>  (193) 
-0.64124800000000004

>  <SCORE.heavy>  (193) 
16

>  <OrigSmiles>  (193) 
C#CC1(O)CCN(C(=O)c2cccs2)CC1

>  <SuCOS_Score>  (193) 
0.41811773681248104

>  <Max_SuCOS_Score>  (193) 
0

>  <Cum_SuCOS_Score>  (193) 
0

>  <TransFSScore_50nM>  (193) 
0.026599000000000001

>  <TransFSScore_1uM>  (193) 
0.15451400000000001

>  <TransFSScore_10nM>  (193) 
0.0039760000000000004

>  <TransFSScore_200nM>  (193) 
0.058089000000000002

>  <TransFSScore>  (193) 
0.060794500000000008

>  <FeatureSteinScore>  (193) 
0.22903168237842686

$$$$
C#CC1(O)CCN(CC23CC(CN2)C3)CC1
     RDKit          3D

 16 18  0  0  0  0  0  0  0  0999 V2000
    8.2671   -5.4427   28.5577 C   0  0  0  0  0  0  0  0  0  0  0  0
    8.7186   -5.4576   27.4397 C   0  0  0  0  0  0  0  0  0  0  0  0
    9.2726   -5.4755   26.0674 C   0  0  0  0  0  0  0  0  0  0  0  0
    9.5646   -6.8001   25.6905 O   0  0  0  0  0  0  0  0  0  0  0  0
    8.2342   -4.9149   25.0927 C   0  0  0  0  0  0  0  0  0  0  0  0
    8.9376   -4.4741   23.8300 C   0  0  0  0  0  0  0  0  0  0  0  0
    9.6900   -3.2550   24.1358 N   0  0  0  0  0  0  0  0  0  0  0  0
   10.3331   -2.6886   22.9613 C   0  0  0  0  0  0  0  0  0  0  0  0
    9.3522   -1.7312   22.2605 C   0  0  1  0  0  0  0  0  0  0  0  0
    8.6873   -0.6648   23.1298 C   0  0  0  0  0  0  0  0  0  0  0  0
    7.7186   -0.6782   21.9598 C   0  0  1  0  0  0  0  0  0  0  0  0
    8.6480   -0.1518   20.8572 C   0  0  0  0  0  0  0  0  0  0  0  0
    9.8640   -0.9517   21.1217 N   0  0  0  0  0  0  0  0  0  0  0  0
    7.9596   -2.1742   21.8145 C   0  0  0  0  0  0  0  0  0  0  0  0
   10.5294   -3.2970   25.3553 C   0  0  0  0  0  0  0  0  0  0  0  0
   10.6029   -4.6783   26.0304 C   0  0  0  0  0  0  0  0  0  0  0  0
  1  2  3  0
  2  3  1  0
  3  4  1  0
  3  5  1  0
  5  6  1  0
  6  7  1  0
  7  8  1  0
  7 15  1  0
  9  8  1  1
  9 10  1  0
 11 10  1  1
 11 12  1  0
 11 14  1  0
 12 13  1  0
 13  9  1  0
 14  9  1  0
 15 16  1  0
 16  3  1  0
M  END
>  <Hit>  (194) 
Mpro-x0387_0

>  <Receptor>  (194) 
Mpro-x0387_0

>  <SCORE>  (194) 
-13.477600000000001

>  <SCORE.norm>  (194) 
-0.84235300000000002

>  <SCORE.heavy>  (194) 
16

>  <OrigSmiles>  (194) 
C#CC1(O)CCN(CC23CC(CN2)C3)CC1

>  <SuCOS_Score>  (194) 
0.3852986043619071

>  <Max_SuCOS_Score>  (194) 
0

>  <Cum_SuCOS_Score>  (194) 
0

>  <TransFSScore_50nM>  (194) 
0.044568999999999998

>  <TransFSScore_1uM>  (194) 
0.038584

>  <TransFSScore_10nM>  (194) 
0.0044539999999999996

>  <TransFSScore_200nM>  (194) 
0.043672000000000002

>  <TransFSScore>  (194) 
0.032819750000000002

>  <FeatureSteinScore>  (194) 
0.41705766453017673

$$$$
C#CC1(O)CCN(CC23CNCC2C3)CC1
     RDKit          3D

 16 18  0  0  0  0  0  0  0  0999 V2000
    6.0068   -5.1010   27.9436 C   0  0  0  0  0  0  0  0  0  0  0  0
    6.8963   -5.1273   27.1298 C   0  0  0  0  0  0  0  0  0  0  0  0
    7.9887   -5.1597   26.1310 C   0  0  0  0  0  0  0  0  0  0  0  0
    8.4313   -6.4871   25.9936 O   0  0  0  0  0  0  0  0  0  0  0  0
    7.4100   -4.7122   24.7859 C   0  0  0  0  0  0  0  0  0  0  0  0
    8.4890   -4.4158   23.7426 C   0  0  0  0  0  0  0  0  0  0  0  0
    9.6118   -3.5939   24.2637 N   0  0  0  0  0  0  0  0  0  0  0  0
   10.2625   -2.6292   23.3534 C   0  0  0  0  0  0  0  0  0  0  0  0
    9.3626   -1.5124   22.8036 C   0  0  2  0  0  0  0  0  0  0  0  0
    8.6189   -1.6960   21.4821 C   0  0  0  0  0  0  0  0  0  0  0  0
    9.0345   -0.6222   20.5771 N   0  0  0  0  0  0  0  0  0  0  0  0
    9.5890    0.4549   21.4001 C   0  0  0  0  0  0  0  0  0  0  0  0
   10.0105   -0.1426   22.7318 C   0  0  1  0  0  0  0  0  0  0  0  0
    8.9044   -0.4060   23.7453 C   0  0  0  0  0  0  0  0  0  0  0  0
    9.4267   -3.0766   25.6299 C   0  0  0  0  0  0  0  0  0  0  0  0
    9.1574   -4.2455   26.5910 C   0  0  0  0  0  0  0  0  0  0  0  0
  1  2  3  0
  2  3  1  0
  3  4  1  0
  3  5  1  0
  5  6  1  0
  6  7  1  0
  7  8  1  0
  7 15  1  0
  9  8  1  1
  9 10  1  0
 10 11  1  0
 11 12  1  0
 13 12  1  6
 13 14  1  0
 13  9  1  0
 14  9  1  0
 15 16  1  0
 16  3  1  0
M  END
>  <Hit>  (195) 
Mpro-x0387_0

>  <Receptor>  (195) 
Mpro-x1249_0

>  <SCORE>  (195) 
-10.741899999999999

>  <SCORE.norm>  (195) 
-0.67136600000000002

>  <SCORE.heavy>  (195) 
16

>  <OrigSmiles>  (195) 
C#CC1(O)CCN(CC23CNCC2C3)CC1

>  <SuCOS_Score>  (195) 
0.33547966635274773

>  <Max_SuCOS_Score>  (195) 
0

>  <Cum_SuCOS_Score>  (195) 
0

>  <TransFSScore_50nM>  (195) 
0.0096640000000000007

>  <TransFSScore_1uM>  (195) 
0.018585999999999998

>  <TransFSScore_10nM>  (195) 
0.017825000000000001

>  <TransFSScore_200nM>  (195) 
0.073260000000000006

>  <TransFSScore>  (195) 
0.029833749999999999

>  <FeatureSteinScore>  (195) 
0.5284255545838672

$$$$
C#CC1(O)CCN(CC2=CCCC2)CC1
     RDKit          3D

 15 16  0  0  0  0  0  0  0  0999 V2000
    8.1448   -4.0940   27.4856 C   0  0  0  0  0  0  0  0  0  0  0  0
    8.6694   -4.8254   26.6820 C   0  0  0  0  0  0  0  0  0  0  0  0
    9.3120   -5.7268   25.6814 C   0  0  0  0  0  0  0  0  0  0  0  0
    9.2030   -6.9341   26.3133 O   0  0  0  0  0  0  0  0  0  0  0  0
   10.7667   -5.3835   25.4155 C   0  0  0  0  0  0  0  0  0  0  0  0
   10.8198   -3.8919   25.2666 C   0  0  0  0  0  0  0  0  0  0  0  0
    9.9543   -3.4153   24.1668 N   0  0  0  0  0  0  0  0  0  0  0  0
    9.7306   -1.9797   24.2950 C   0  0  0  0  0  0  0  0  0  0  0  0
   10.9846   -1.2508   23.9051 C   0  0  0  0  0  0  0  0  0  0  0  0
   11.5037   -0.2521   24.6041 C   0  0  0  0  0  0  0  0  0  0  0  0
   12.7599    0.2613   24.0008 C   0  0  0  0  0  0  0  0  0  0  0  0
   12.9498   -0.5781   22.7328 C   0  0  0  0  0  0  0  0  0  0  0  0
   11.8106   -1.6020   22.7185 C   0  0  0  0  0  0  0  0  0  0  0  0
    8.6958   -4.1368   23.8241 C   0  0  0  0  0  0  0  0  0  0  0  0
    8.5412   -5.5708   24.3863 C   0  0  0  0  0  0  0  0  0  0  0  0
  1  2  3  0
  2  3  1  0
  3  4  1  0
  3  5  1  0
  5  6  1  0
  6  7  1  0
  7  8  1  0
  7 14  1  0
  8  9  1  0
  9 10  2  0
 10 11  1  0
 11 12  1  0
 12 13  1  0
 13  9  1  0
 14 15  1  0
 15  3  1  0
M  END
>  <Hit>  (196) 
Mpro-x0387_0

>  <Receptor>  (196) 
Mpro-x0387_0

>  <SCORE>  (196) 
-9.2224299999999992

>  <SCORE.norm>  (196) 
-0.61482899999999996

>  <SCORE.heavy>  (196) 
15

>  <OrigSmiles>  (196) 
C#CC1(O)CCN(CC2=CCCC2)CC1

>  <SuCOS_Score>  (196) 
0.58481675187640381

>  <Max_SuCOS_Score>  (196) 
0

>  <Cum_SuCOS_Score>  (196) 
0

>  <TransFSScore_50nM>  (196) 
0.0053319999999999999

>  <TransFSScore_1uM>  (196) 
0.028278000000000001

>  <TransFSScore_10nM>  (196) 
0.018896

>  <TransFSScore_200nM>  (196) 
0.096809000000000006

>  <TransFSScore>  (196) 
0.037328750000000001

>  <FeatureSteinScore>  (196) 
0.45632206563241851

$$$$
C#CC1(O)CCN(CC2C3CNC2C3)CC1
     RDKit          3D

 16 18  0  0  0  0  0  0  0  0999 V2000
    5.9293   -3.6527   27.4135 C   0  0  0  0  0  0  0  0  0  0  0  0
    6.8000   -4.4408   27.1362 C   0  0  0  0  0  0  0  0  0  0  0  0
    7.8742   -5.4206   26.8006 C   0  0  0  0  0  0  0  0  0  0  0  0
    7.6526   -6.3810   27.7476 O   0  0  0  0  0  0  0  0  0  0  0  0
    9.2731   -4.8453   26.9305 C   0  0  0  0  0  0  0  0  0  0  0  0
    9.2243   -3.4917   26.2879 C   0  0  0  0  0  0  0  0  0  0  0  0
    8.8145   -3.5675   24.8698 N   0  0  0  0  0  0  0  0  0  0  0  0
    8.4020   -2.2503   24.3990 C   0  0  0  0  0  0  0  0  0  0  0  0
    9.5242   -1.6605   23.5165 C   0  0  2  0  0  0  0  0  0  0  0  0
    9.1331   -0.4995   22.5991 C   0  0  1  0  0  0  0  0  0  0  0  0
   10.4908   -0.2531   21.9289 C   0  0  0  0  0  0  0  0  0  0  0  0
   10.8809   -1.6440   21.6040 N   0  0  0  0  0  0  0  0  0  0  0  0
    9.6986   -2.3292   22.1475 C   0  0  2  0  0  0  0  0  0  0  0  0
    8.5528   -1.4887   21.5975 C   0  0  0  0  0  0  0  0  0  0  0  0
    7.8775   -4.6310   24.4064 C   0  0  0  0  0  0  0  0  0  0  0  0
    7.6614   -5.8321   25.3584 C   0  0  0  0  0  0  0  0  0  0  0  0
  1  2  3  0
  2  3  1  0
  3  4  1  0
  3  5  1  0
  5  6  1  0
  6  7  1  0
  7  8  1  0
  7 15  1  0
  9  8  1  1
  9 10  1  0
 10 11  1  6
 11 12  1  0
 12 13  1  0
 13 14  1  6
 13  9  1  0
 14 10  1  0
 15 16  1  0
 16  3  1  0
M  END
>  <Hit>  (197) 
Mpro-x0387_0

>  <Receptor>  (197) 
Mpro-x1249_0

>  <SCORE>  (197) 
-10.9726

>  <SCORE.norm>  (197) 
-0.68579100000000004

>  <SCORE.heavy>  (197) 
16

>  <OrigSmiles>  (197) 
C#CC1(O)CCN(CC2C3CNC2C3)CC1

>  <SuCOS_Score>  (197) 
0.30515510090004117

>  <Max_SuCOS_Score>  (197) 
0

>  <Cum_SuCOS_Score>  (197) 
0

>  <TransFSScore_50nM>  (197) 
0.018207000000000001

>  <TransFSScore_1uM>  (197) 
0.026254

>  <TransFSScore_10nM>  (197) 
0.015242

>  <TransFSScore_200nM>  (197) 
0.382272

>  <TransFSScore>  (197) 
0.11049375

>  <FeatureSteinScore>  (197) 
0.32635410500518985

$$$$
C#CC1(O)CCN(CC2C3CNCC32)CC1
     RDKit          3D

 16 18  0  0  0  0  0  0  0  0999 V2000
    7.0989   -6.3063   27.6651 C   0  0  0  0  0  0  0  0  0  0  0  0
    7.8297   -5.9609   26.7703 C   0  0  0  0  0  0  0  0  0  0  0  0
    8.7270   -5.5373   25.6717 C   0  0  0  0  0  0  0  0  0  0  0  0
    9.4450   -6.6592   25.2207 O   0  0  0  0  0  0  0  0  0  0  0  0
    7.8537   -5.0388   24.5162 C   0  0  0  0  0  0  0  0  0  0  0  0
    8.6601   -4.3095   23.4399 C   0  0  0  0  0  0  0  0  0  0  0  0
    9.6157   -3.3131   23.9907 N   0  0  0  0  0  0  0  0  0  0  0  0
    9.8778   -2.0852   23.2131 C   0  0  0  0  0  0  0  0  0  0  0  0
   11.2872   -1.5082   23.3478 C   0  0  1  0  0  0  0  0  0  0  0  0
   11.8211   -0.8516   22.0783 C   0  0  2  0  0  0  0  0  0  0  0  0
   13.3302   -0.6997   21.9787 C   0  0  0  0  0  0  0  0  0  0  0  0
   13.7415    0.3959   22.8602 N   0  0  0  0  0  0  0  0  0  0  0  0
   12.6522    0.6330   23.8102 C   0  0  0  0  0  0  0  0  0  0  0  0
   11.3886    0.0086   23.2461 C   0  0  2  0  0  0  0  0  0  0  0  0
    9.5318   -3.0940   25.4439 C   0  0  0  0  0  0  0  0  0  0  0  0
    9.7026   -4.4369   26.1755 C   0  0  0  0  0  0  0  0  0  0  0  0
  1  2  3  0
  2  3  1  0
  3  4  1  0
  3  5  1  0
  5  6  1  0
  6  7  1  0
  7  8  1  0
  7 15  1  0
  9  8  1  6
  9 10  1  0
 10 11  1  1
 11 12  1  0
 12 13  1  0
 14 13  1  1
 14  9  1  0
 14 10  1  0
 15 16  1  0
 16  3  1  0
M  END
>  <Hit>  (198) 
Mpro-x0387_0

>  <Receptor>  (198) 
Mpro-x0874_0

>  <SCORE>  (198) 
-11.908300000000001

>  <SCORE.norm>  (198) 
-0.74426700000000001

>  <SCORE.heavy>  (198) 
16

>  <OrigSmiles>  (198) 
C#CC1(O)CCN(CC2C3CNCC32)CC1

>  <SuCOS_Score>  (198) 
0.57371026096279321

>  <Max_SuCOS_Score>  (198) 
0

>  <Cum_SuCOS_Score>  (198) 
0

>  <TransFSScore_50nM>  (198) 
0.0038779999999999999

>  <TransFSScore_1uM>  (198) 
0.056378999999999999

>  <TransFSScore_10nM>  (198) 
0.019866999999999999

>  <TransFSScore_200nM>  (198) 
0.13239500000000001

>  <TransFSScore>  (198) 
0.053129750000000003

>  <FeatureSteinScore>  (198) 
0.50123009878668523

$$$$
C#CC1(O)CCN(CC2CC23CC3)CC1
     RDKit          3D

 15 17  0  0  0  0  0  0  0  0999 V2000
   10.0638   -6.1569   25.6595 C   0  0  0  0  0  0  0  0  0  0  0  0
    9.2207   -5.3813   26.0398 C   0  0  0  0  0  0  0  0  0  0  0  0
    8.1757   -4.4214   26.4882 C   0  0  0  0  0  0  0  0  0  0  0  0
    7.6810   -5.1162   27.5496 O   0  0  0  0  0  0  0  0  0  0  0  0
    7.1323   -4.2098   25.4021 C   0  0  0  0  0  0  0  0  0  0  0  0
    7.8706   -3.8450   24.1166 C   0  0  0  0  0  0  0  0  0  0  0  0
    9.0908   -3.0270   24.3398 N   0  0  0  0  0  0  0  0  0  0  0  0
    9.5970   -2.2875   23.1798 C   0  0  0  0  0  0  0  0  0  0  0  0
   11.0667   -1.8621   23.2765 C   0  0  2  0  0  0  0  0  0  0  0  0
   11.2331   -0.4232   23.5893 C   0  0  0  0  0  0  0  0  0  0  0  0
   11.5640   -0.9060   22.1500 C   0  0  0  0  0  0  0  0  0  0  0  0
   12.9184   -0.1756   21.9253 C   0  0  0  0  0  0  0  0  0  0  0  0
   12.8719   -1.6332   21.7326 C   0  0  0  0  0  0  0  0  0  0  0  0
    9.0416   -2.1985   25.5666 C   0  0  0  0  0  0  0  0  0  0  0  0
    8.8329   -3.0706   26.8365 C   0  0  0  0  0  0  0  0  0  0  0  0
  1  2  3  0
  2  3  1  0
  3  4  1  0
  3  5  1  0
  5  6  1  0
  6  7  1  0
  7  8  1  0
  7 14  1  0
  9  8  1  6
  9 10  1  0
 10 11  1  0
 11 12  1  0
 11  9  1  0
 12 13  1  0
 13 11  1  0
 14 15  1  0
 15  3  1  0
M  END
>  <Hit>  (199) 
Mpro-x0387_0

>  <Receptor>  (199) 
Mpro-x1249_0

>  <SCORE>  (199) 
-10.216900000000001

>  <SCORE.norm>  (199) 
-0.68112600000000001

>  <SCORE.heavy>  (199) 
15

>  <OrigSmiles>  (199) 
C#CC1(O)CCN(CC2CC23CC3)CC1

>  <SuCOS_Score>  (199) 
0.57436939040133494

>  <Max_SuCOS_Score>  (199) 
0

>  <Cum_SuCOS_Score>  (199) 
0

>  <TransFSScore_50nM>  (199) 
0.0028040000000000001

>  <TransFSScore_1uM>  (199) 
0.036812999999999999

>  <TransFSScore_10nM>  (199) 
0.029562999999999999

>  <TransFSScore_200nM>  (199) 
0.095670000000000005

>  <TransFSScore>  (199) 
0.041212499999999999

>  <FeatureSteinScore>  (199) 
0.50677665567536867

$$$$
C#CC1(O)CCN(CC2CC3CC3C2)CC1
     RDKit          3D

 16 18  0  0  0  0  0  0  0  0999 V2000
    8.8628   -2.9623   27.5942 C   0  0  0  0  0  0  0  0  0  0  0  0
    8.7647   -4.0120   27.0065 C   0  0  0  0  0  0  0  0  0  0  0  0
    8.6254   -5.3052   26.2699 C   0  0  0  0  0  0  0  0  0  0  0  0
    8.1751   -6.1152   27.2730 O   0  0  0  0  0  0  0  0  0  0  0  0
    9.9552   -5.7670   25.6825 C   0  0  0  0  0  0  0  0  0  0  0  0
   10.5398   -4.5920   24.9094 C   0  0  0  0  0  0  0  0  0  0  0  0
    9.5166   -3.7915   24.1864 N   0  0  0  0  0  0  0  0  0  0  0  0
    9.9869   -2.8765   23.1345 C   0  0  0  0  0  0  0  0  0  0  0  0
   11.2980   -2.1123   23.4343 C   0  0  2  0  0  0  0  0  0  0  0  0
   11.0982   -1.0852   24.5624 C   0  0  0  0  0  0  0  0  0  0  0  0
   10.8508    0.2656   23.9062 C   0  0  1  0  0  0  0  0  0  0  0  0
   12.0768    1.0145   23.4050 C   0  0  0  0  0  0  0  0  0  0  0  0
   11.2644    0.1507   22.4530 C   0  0  1  0  0  0  0  0  0  0  0  0
   11.7540   -1.2732   22.2269 C   0  0  0  0  0  0  0  0  0  0  0  0
    8.2878   -4.5394   23.8397 C   0  0  0  0  0  0  0  0  0  0  0  0
    7.6148   -5.1347   25.1149 C   0  0  0  0  0  0  0  0  0  0  0  0
  1  2  3  0
  2  3  1  0
  3  4  1  0
  3  5  1  0
  5  6  1  0
  6  7  1  0
  7  8  1  0
  7 15  1  0
  9  8  1  6
  9 10  1  0
 11 10  1  1
 11 12  1  0
 13 12  1  1
 13 14  1  0
 13 11  1  0
 14  9  1  0
 15 16  1  0
 16  3  1  0
M  END
>  <Hit>  (200) 
Mpro-x0387_0

>  <Receptor>  (200) 
Mpro-x0305_0

>  <SCORE>  (200) 
-10.8485

>  <SCORE.norm>  (200) 
-0.67803100000000005

>  <SCORE.heavy>  (200) 
16

>  <OrigSmiles>  (200) 
C#CC1(O)CCN(CC2CC3CC3C2)CC1

>  <SuCOS_Score>  (200) 
0.49328435152426375

>  <Max_SuCOS_Score>  (200) 
0

>  <Cum_SuCOS_Score>  (200) 
0

>  <TransFSScore_50nM>  (200) 
0.0077140000000000004

>  <TransFSScore_1uM>  (200) 
0.021066999999999999

>  <TransFSScore_10nM>  (200) 
0.021925

>  <TransFSScore_200nM>  (200) 
0.11441

>  <TransFSScore>  (200) 
0.041278999999999996

>  <FeatureSteinScore>  (200) 
0.43146748257966311

$$$$
C#CC1(O)CCN(CC2CC=CCC2)CC1
     RDKit          3D

 16 17  0  0  0  0  0  0  0  0999 V2000
    9.9526   -4.7566   28.3951 C   0  0  0  0  0  0  0  0  0  0  0  0
    9.8729   -4.8859   27.1990 C   0  0  0  0  0  0  0  0  0  0  0  0
    9.7750   -5.0442   25.7307 C   0  0  0  0  0  0  0  0  0  0  0  0
    9.7975   -6.4120   25.3983 O   0  0  0  0  0  0  0  0  0  0  0  0
    8.4507   -4.4504   25.2423 C   0  0  0  0  0  0  0  0  0  0  0  0
    8.5620   -4.1562   23.7638 C   0  0  0  0  0  0  0  0  0  0  0  0
    9.4457   -2.9975   23.5998 N   0  0  0  0  0  0  0  0  0  0  0  0
    9.5477   -2.5743   22.2118 C   0  0  0  0  0  0  0  0  0  0  0  0
    9.1850   -1.0694   22.1294 C   0  0  2  0  0  0  0  0  0  0  0  0
    8.7406   -0.6816   20.7026 C   0  0  0  0  0  0  0  0  0  0  0  0
    8.5617    0.8070   20.5406 C   0  0  0  0  0  0  0  0  0  0  0  0
    9.1971    1.6987   21.3186 C   0  0  0  0  0  0  0  0  0  0  0  0
    9.9755    1.2975   22.5469 C   0  0  0  0  0  0  0  0  0  0  0  0
   10.3786   -0.1832   22.5359 C   0  0  0  0  0  0  0  0  0  0  0  0
   10.7258   -3.0440   24.3426 C   0  0  0  0  0  0  0  0  0  0  0  0
   11.0021   -4.3819   25.0509 C   0  0  0  0  0  0  0  0  0  0  0  0
  1  2  3  0
  2  3  1  0
  3  4  1  0
  3  5  1  0
  5  6  1  0
  6  7  1  0
  7  8  1  0
  7 15  1  0
  9  8  1  6
  9 10  1  0
 10 11  1  0
 11 12  2  0
 12 13  1  0
 13 14  1  0
 14  9  1  0
 15 16  1  0
 16  3  1  0
M  END
>  <Hit>  (201) 
Mpro-x0387_0

>  <Receptor>  (201) 
Mpro-x0387_0

>  <SCORE>  (201) 
-10.9095

>  <SCORE.norm>  (201) 
-0.68184699999999998

>  <SCORE.heavy>  (201) 
16

>  <OrigSmiles>  (201) 
C#CC1(O)CCN(CC2CC=CCC2)CC1

>  <SuCOS_Score>  (201) 
0.34534320028403959

>  <Max_SuCOS_Score>  (201) 
0

>  <Cum_SuCOS_Score>  (201) 
0

>  <TransFSScore_50nM>  (201) 
0.0042760000000000003

>  <TransFSScore_1uM>  (201) 
0.019553999999999998

>  <TransFSScore_10nM>  (201) 
0.004561

>  <TransFSScore_200nM>  (201) 
0.060574000000000003

>  <TransFSScore>  (201) 
0.022241250000000001

>  <FeatureSteinScore>  (201) 
0.46452865843621338

$$$$
C#CC1(O)CCN(CC2CCC(=O)N2)CC1
     RDKit          3D

 16 17  0  0  0  0  0  0  0  0999 V2000
    9.6095   -3.5901   28.4551 C   0  0  0  0  0  0  0  0  0  0  0  0
    9.2610   -4.4425   27.6753 C   0  0  0  0  0  0  0  0  0  0  0  0
    8.8209   -5.4941   26.7126 C   0  0  0  0  0  0  0  0  0  0  0  0
    8.2370   -6.3942   27.5597 O   0  0  0  0  0  0  0  0  0  0  0  0
    9.9714   -6.1312   25.9574 C   0  0  0  0  0  0  0  0  0  0  0  0
   10.8595   -5.0043   25.5259 C   0  0  0  0  0  0  0  0  0  0  0  0
   10.1443   -4.0247   24.6817 N   0  0  0  0  0  0  0  0  0  0  0  0
   10.8909   -2.7725   24.6132 C   0  0  0  0  0  0  0  0  0  0  0  0
   11.4213   -2.5530   23.1874 C   0  0  2  0  0  0  0  0  0  0  0  0
   12.0274   -1.1330   23.0276 C   0  0  0  0  0  0  0  0  0  0  0  0
   11.0699   -0.3268   22.1364 C   0  0  0  0  0  0  0  0  0  0  0  0
   10.1327   -1.3517   21.6399 C   0  0  0  0  0  0  0  0  0  0  0  0
    9.2276   -1.1275   20.7940 O   0  0  0  0  0  0  0  0  0  0  0  0
   10.3345   -2.6182   22.2240 N   0  0  0  0  0  0  0  0  0  0  0  0
    8.6853   -3.7805   24.8688 C   0  0  0  0  0  0  0  0  0  0  0  0
    7.9072   -4.8214   25.7089 C   0  0  0  0  0  0  0  0  0  0  0  0
  1  2  3  0
  2  3  1  0
  3  4  1  0
  3  5  1  0
  5  6  1  0
  6  7  1  0
  7  8  1  0
  7 15  1  0
  9  8  1  1
  9 10  1  0
 10 11  1  0
 11 12  1  0
 12 13  2  0
 12 14  1  0
 14  9  1  0
 15 16  1  0
 16  3  1  0
M  END
>  <Hit>  (202) 
Mpro-x0387_0

>  <Receptor>  (202) 
Mpro-x0387_0

>  <SCORE>  (202) 
-10.8048

>  <SCORE.norm>  (202) 
-0.67529799999999995

>  <SCORE.heavy>  (202) 
16

>  <OrigSmiles>  (202) 
C#CC1(O)CCN(CC2CCC(=O)N2)CC1

>  <SuCOS_Score>  (202) 
0.37303935419111944

>  <Max_SuCOS_Score>  (202) 
0

>  <Cum_SuCOS_Score>  (202) 
0

>  <TransFSScore_50nM>  (202) 
0.0072360000000000002

>  <TransFSScore_1uM>  (202) 
0.033868000000000002

>  <TransFSScore_10nM>  (202) 
0.000444

>  <TransFSScore_200nM>  (202) 
0.027241999999999999

>  <TransFSScore>  (202) 
0.017197500000000001

>  <FeatureSteinScore>  (202) 
0.11954323037748475

$$$$
C#CC1(O)CCN(CC2CCCC2)CC1
     RDKit          3D

 15 16  0  0  0  0  0  0  0  0999 V2000
   10.4825   -5.8715   25.9196 C   0  0  0  0  0  0  0  0  0  0  0  0
    9.4984   -5.1925   26.0849 C   0  0  0  0  0  0  0  0  0  0  0  0
    8.2681   -4.3692   26.2868 C   0  0  0  0  0  0  0  0  0  0  0  0
    7.7077   -5.0015   27.3612 O   0  0  0  0  0  0  0  0  0  0  0  0
    7.3764   -4.3852   25.0518 C   0  0  0  0  0  0  0  0  0  0  0  0
    8.2464   -4.0290   23.8536 C   0  0  0  0  0  0  0  0  0  0  0  0
    9.3053   -3.0321   24.1549 N   0  0  0  0  0  0  0  0  0  0  0  0
    9.8652   -2.3034   23.0151 C   0  0  0  0  0  0  0  0  0  0  0  0
   11.2657   -1.6880   23.2029 C   0  0  0  0  0  0  0  0  0  0  0  0
   11.8891   -1.3428   21.8429 C   0  0  0  0  0  0  0  0  0  0  0  0
   12.7304   -0.1057   22.0812 C   0  0  0  0  0  0  0  0  0  0  0  0
   11.9795    0.6750   23.1408 C   0  0  0  0  0  0  0  0  0  0  0  0
   11.2480   -0.3617   23.9869 C   0  0  0  0  0  0  0  0  0  0  0  0
    8.9660   -2.1241   25.2760 C   0  0  0  0  0  0  0  0  0  0  0  0
    8.6711   -2.9124   26.5820 C   0  0  0  0  0  0  0  0  0  0  0  0
  1  2  3  0
  2  3  1  0
  3  4  1  0
  3  5  1  0
  5  6  1  0
  6  7  1  0
  7  8  1  0
  7 14  1  0
  8  9  1  0
  9 10  1  0
 10 11  1  0
 11 12  1  0
 12 13  1  0
 13  9  1  0
 14 15  1  0
 15  3  1  0
M  END
>  <Hit>  (203) 
Mpro-x0387_0

>  <Receptor>  (203) 
Mpro-x1249_0

>  <SCORE>  (203) 
-10.0334

>  <SCORE.norm>  (203) 
-0.66889200000000004

>  <SCORE.heavy>  (203) 
15

>  <OrigSmiles>  (203) 
C#CC1(O)CCN(CC2CCCC2)CC1

>  <SuCOS_Score>  (203) 
0.59740625120008284

>  <Max_SuCOS_Score>  (203) 
0

>  <Cum_SuCOS_Score>  (203) 
0

>  <TransFSScore_50nM>  (203) 
0.002679

>  <TransFSScore_1uM>  (203) 
0.033431000000000002

>  <TransFSScore_10nM>  (203) 
0.026426999999999999

>  <TransFSScore_200nM>  (203) 
0.102224

>  <TransFSScore>  (203) 
0.041190249999999998

>  <FeatureSteinScore>  (203) 
0.60970147929993523

$$$$
C#CC1(O)CCN(CC2CCCCC2)CC1
     RDKit          3D

 16 17  0  0  0  0  0  0  0  0999 V2000
    6.6964   -5.0228   28.5807 C   0  0  0  0  0  0  0  0  0  0  0  0
    7.5598   -5.1825   27.7542 C   0  0  0  0  0  0  0  0  0  0  0  0
    8.6196   -5.3780   26.7389 C   0  0  0  0  0  0  0  0  0  0  0  0
    8.8956   -6.7537   26.6312 O   0  0  0  0  0  0  0  0  0  0  0  0
    8.1125   -4.8525   25.3907 C   0  0  0  0  0  0  0  0  0  0  0  0
    9.2297   -4.7552   24.3563 C   0  0  0  0  0  0  0  0  0  0  0  0
   10.4463   -4.0605   24.8565 N   0  0  0  0  0  0  0  0  0  0  0  0
   11.2173   -3.1766   23.9534 C   0  0  0  0  0  0  0  0  0  0  0  0
   10.5127   -1.9145   23.3925 C   0  0  0  0  0  0  0  0  0  0  0  0
   10.5477   -0.7283   24.4165 C   0  0  0  0  0  0  0  0  0  0  0  0
   11.5311    0.4027   24.0634 C   0  0  0  0  0  0  0  0  0  0  0  0
   12.8165   -0.1516   23.4539 C   0  0  0  0  0  0  0  0  0  0  0  0
   12.5434   -0.9081   22.1417 C   0  0  0  0  0  0  0  0  0  0  0  0
   11.1067   -1.4591   22.0300 C   0  0  0  0  0  0  0  0  0  0  0  0
   10.3406   -3.5269   26.2278 C   0  0  0  0  0  0  0  0  0  0  0  0
    9.9075   -4.6426   27.1916 C   0  0  0  0  0  0  0  0  0  0  0  0
  1  2  3  0
  2  3  1  0
  3  4  1  0
  3  5  1  0
  5  6  1  0
  6  7  1  0
  7  8  1  0
  7 15  1  0
  8  9  1  0
  9 10  1  0
 10 11  1  0
 11 12  1  0
 12 13  1  0
 13 14  1  0
 14  9  1  0
 15 16  1  0
 16  3  1  0
M  END
>  <Hit>  (204) 
Mpro-x0387_0

>  <Receptor>  (204) 
Mpro-x0387_0

>  <SCORE>  (204) 
-10.380599999999999

>  <SCORE.norm>  (204) 
-0.64878800000000003

>  <SCORE.heavy>  (204) 
16

>  <OrigSmiles>  (204) 
C#CC1(O)CCN(CC2CCCCC2)CC1

>  <SuCOS_Score>  (204) 
0.49801781029258957

>  <Max_SuCOS_Score>  (204) 
0

>  <Cum_SuCOS_Score>  (204) 
0

>  <TransFSScore_50nM>  (204) 
0.002689

>  <TransFSScore_1uM>  (204) 
0.043027999999999997

>  <TransFSScore_10nM>  (204) 
0.0072230000000000003

>  <TransFSScore_200nM>  (204) 
0.056015000000000002

>  <TransFSScore>  (204) 
0.027238749999999999

>  <FeatureSteinScore>  (204) 
0.38518867595883249

$$$$
C#CC1(O)CCN(CC2CCCCN2)CC1
     RDKit          3D

 16 17  0  0  0  0  0  0  0  0999 V2000
    7.6689   -6.5258   28.5024 C   0  0  0  0  0  0  0  0  0  0  0  0
    8.1578   -6.1612   27.4619 C   0  0  0  0  0  0  0  0  0  0  0  0
    8.7558   -5.7154   26.1895 C   0  0  0  0  0  0  0  0  0  0  0  0
    9.4595   -6.8114   25.6616 O   0  0  0  0  0  0  0  0  0  0  0  0
    7.6176   -5.3387   25.2366 C   0  0  0  0  0  0  0  0  0  0  0  0
    8.1172   -4.5991   23.9976 C   0  0  0  0  0  0  0  0  0  0  0  0
    9.0789   -3.5084   24.3041 N   0  0  0  0  0  0  0  0  0  0  0  0
    9.0973   -2.3009   23.4491 C   0  0  0  0  0  0  0  0  0  0  0  0
   10.2377   -2.1796   22.4029 C   0  0  2  0  0  0  0  0  0  0  0  0
   11.6382   -1.9534   23.0433 C   0  0  0  0  0  0  0  0  0  0  0  0
   11.8252   -0.5280   23.5805 C   0  0  0  0  0  0  0  0  0  0  0  0
   11.4572    0.5136   22.5267 C   0  0  0  0  0  0  0  0  0  0  0  0
   10.0527    0.2481   21.9808 C   0  0  0  0  0  0  0  0  0  0  0  0
    9.9562   -1.1078   21.4160 N   0  0  0  0  0  0  0  0  0  0  0  0
    9.2860   -3.2319   25.7373 C   0  0  0  0  0  0  0  0  0  0  0  0
    9.7148   -4.5224   26.4590 C   0  0  0  0  0  0  0  0  0  0  0  0
  1  2  3  0
  2  3  1  0
  3  4  1  0
  3  5  1  0
  5  6  1  0
  6  7  1  0
  7  8  1  0
  7 15  1  0
  9  8  1  1
  9 10  1  0
 10 11  1  0
 11 12  1  0
 12 13  1  0
 13 14  1  0
 14  9  1  0
 15 16  1  0
 16  3  1  0
M  END
>  <Hit>  (205) 
Mpro-x0387_0

>  <Receptor>  (205) 
Mpro-x0305_0

>  <SCORE>  (205) 
-12.964499999999999

>  <SCORE.norm>  (205) 
-0.81028199999999995

>  <SCORE.heavy>  (205) 
16

>  <OrigSmiles>  (205) 
C#CC1(O)CCN(CC2CCCCN2)CC1

>  <SuCOS_Score>  (205) 
0.39034333760390522

>  <Max_SuCOS_Score>  (205) 
0

>  <Cum_SuCOS_Score>  (205) 
0

>  <TransFSScore_50nM>  (205) 
0.067161999999999999

>  <TransFSScore_1uM>  (205) 
0.035582000000000003

>  <TransFSScore_10nM>  (205) 
0.031337999999999998

>  <TransFSScore_200nM>  (205) 
0.079844999999999999

>  <TransFSScore>  (205) 
0.053481750000000002

>  <FeatureSteinScore>  (205) 
0.38409708701004097

$$$$
C#CC1(O)CCN(CC2CCCCO2)CC1
     RDKit          3D

 16 17  0  0  0  0  0  0  0  0999 V2000
    7.8253   -4.6461   27.2253 C   0  0  0  0  0  0  0  0  0  0  0  0
    8.5526   -5.2001   26.4377 C   0  0  0  0  0  0  0  0  0  0  0  0
    9.4585   -5.8792   25.4656 C   0  0  0  0  0  0  0  0  0  0  0  0
    9.5336   -7.1302   26.0110 O   0  0  0  0  0  0  0  0  0  0  0  0
   10.8327   -5.2435   25.3832 C   0  0  0  0  0  0  0  0  0  0  0  0
   10.6027   -3.7647   25.3302 C   0  0  0  0  0  0  0  0  0  0  0  0
    9.7668   -3.3724   24.1781 N   0  0  0  0  0  0  0  0  0  0  0  0
    9.2366   -2.0256   24.3691 C   0  0  0  0  0  0  0  0  0  0  0  0
   10.3374   -0.9735   24.1086 C   0  0  2  0  0  0  0  0  0  0  0  0
   11.0980   -1.2169   22.7711 C   0  0  0  0  0  0  0  0  0  0  0  0
   12.5896   -0.8741   22.8932 C   0  0  0  0  0  0  0  0  0  0  0  0
   12.7891    0.3381   23.8019 C   0  0  0  0  0  0  0  0  0  0  0  0
   12.1097    0.1152   25.1705 C   0  0  0  0  0  0  0  0  0  0  0  0
   11.2575   -1.0199   25.1884 O   0  0  0  0  0  0  0  0  0  0  0  0
    8.7268   -4.2988   23.6434 C   0  0  0  0  0  0  0  0  0  0  0  0
    8.8043   -5.7744   24.1036 C   0  0  0  0  0  0  0  0  0  0  0  0
  1  2  3  0
  2  3  1  0
  3  4  1  0
  3  5  1  0
  5  6  1  0
  6  7  1  0
  7  8  1  0
  7 15  1  0
  9  8  1  1
  9 10  1  0
 10 11  1  0
 11 12  1  0
 12 13  1  0
 13 14  1  0
 14  9  1  0
 15 16  1  0
 16  3  1  0
M  END
>  <Hit>  (206) 
Mpro-x0387_0

>  <Receptor>  (206) 
Mpro-x0387_0

>  <SCORE>  (206) 
-10.2544

>  <SCORE.norm>  (206) 
-0.640899

>  <SCORE.heavy>  (206) 
16

>  <OrigSmiles>  (206) 
C#CC1(O)CCN(CC2CCCCO2)CC1

>  <SuCOS_Score>  (206) 
0.50597329566434435

>  <Max_SuCOS_Score>  (206) 
0

>  <Cum_SuCOS_Score>  (206) 
0

>  <TransFSScore_50nM>  (206) 
0.031663999999999998

>  <TransFSScore_1uM>  (206) 
0.047595999999999999

>  <TransFSScore_10nM>  (206) 
0.017904

>  <TransFSScore_200nM>  (206) 
0.055708000000000001

>  <TransFSScore>  (206) 
0.038218000000000002

>  <FeatureSteinScore>  (206) 
0.38372497667552685

$$$$
C#CC1(O)CCN(CC2CCCN2)CC1
     RDKit          3D

 15 16  0  0  0  0  0  0  0  0999 V2000
    7.2488   -2.3412   26.4095 C   0  0  0  0  0  0  0  0  0  0  0  0
    7.6005   -3.4507   26.0895 C   0  0  0  0  0  0  0  0  0  0  0  0
    8.0538   -4.8132   25.6970 C   0  0  0  0  0  0  0  0  0  0  0  0
    7.6276   -5.5032   26.7893 O   0  0  0  0  0  0  0  0  0  0  0  0
    9.5651   -4.8649   25.5448 C   0  0  0  0  0  0  0  0  0  0  0  0
    9.9714   -3.7268   24.6164 C   0  0  0  0  0  0  0  0  0  0  0  0
    8.9971   -3.4754   23.5231 N   0  0  0  0  0  0  0  0  0  0  0  0
    9.4549   -2.6742   22.3786 C   0  0  0  0  0  0  0  0  0  0  0  0
    9.7196   -1.1728   22.6421 C   0  0  1  0  0  0  0  0  0  0  0  0
   10.8852   -0.9311   23.6244 C   0  0  0  0  0  0  0  0  0  0  0  0
   11.9047   -0.1099   22.8640 C   0  0  0  0  0  0  0  0  0  0  0  0
   11.1179    0.4848   21.7194 C   0  0  0  0  0  0  0  0  0  0  0  0
   10.0800   -0.4857   21.3851 N   0  0  0  0  0  0  0  0  0  0  0  0
    8.1896   -4.6561   23.1419 C   0  0  0  0  0  0  0  0  0  0  0  0
    7.3936   -5.2141   24.3597 C   0  0  0  0  0  0  0  0  0  0  0  0
  1  2  3  0
  2  3  1  0
  3  4  1  0
  3  5  1  0
  5  6  1  0
  6  7  1  0
  7  8  1  0
  7 14  1  0
  9  8  1  6
  9 10  1  0
 10 11  1  0
 11 12  1  0
 12 13  1  0
 13  9  1  0
 14 15  1  0
 15  3  1  0
M  END
>  <Hit>  (207) 
Mpro-x0387_0

>  <Receptor>  (207) 
Mpro-x0874_0

>  <SCORE>  (207) 
-10.450200000000001

>  <SCORE.norm>  (207) 
-0.69667800000000002

>  <SCORE.heavy>  (207) 
15

>  <OrigSmiles>  (207) 
C#CC1(O)CCN(CC2CCCN2)CC1

>  <SuCOS_Score>  (207) 
0.3178526161441963

>  <Max_SuCOS_Score>  (207) 
0

>  <Cum_SuCOS_Score>  (207) 
0

>  <TransFSScore_50nM>  (207) 
0.016605000000000002

>  <TransFSScore_1uM>  (207) 
0.036829000000000001

>  <TransFSScore_10nM>  (207) 
0.02486

>  <TransFSScore_200nM>  (207) 
0.021843999999999999

>  <TransFSScore>  (207) 
0.025034500000000001

>  <FeatureSteinScore>  (207) 
0.41772387852853937

$$$$
C#CC1(O)CCN(CC2CCCNC2)CC1
     RDKit          3D

 16 17  0  0  0  0  0  0  0  0999 V2000
    6.4554   -2.1996   25.2641 C   0  0  0  0  0  0  0  0  0  0  0  0
    6.7367   -3.1474   24.5723 C   0  0  0  0  0  0  0  0  0  0  0  0
    7.0878   -4.3159   23.7066 C   0  0  0  0  0  0  0  0  0  0  0  0
    6.2719   -5.2908   24.2133 O   0  0  0  0  0  0  0  0  0  0  0  0
    8.5349   -4.7526   23.8386 C   0  0  0  0  0  0  0  0  0  0  0  0
    9.3517   -3.4955   23.7955 C   0  0  0  0  0  0  0  0  0  0  0  0
    9.1752   -2.7690   22.5159 N   0  0  0  0  0  0  0  0  0  0  0  0
    9.6776   -1.3986   22.6685 C   0  0  0  0  0  0  0  0  0  0  0  0
   11.1932   -1.3960   23.0185 C   0  0  1  0  0  0  0  0  0  0  0  0
   12.0415   -1.6355   21.7445 C   0  0  0  0  0  0  0  0  0  0  0  0
   13.4994   -1.2392   21.9773 C   0  0  0  0  0  0  0  0  0  0  0  0
   13.6227    0.2513   22.3593 C   0  0  0  0  0  0  0  0  0  0  0  0
   12.3587    0.8282   22.8572 N   0  0  0  0  0  0  0  0  0  0  0  0
   11.6447   -0.0945   23.7531 C   0  0  0  0  0  0  0  0  0  0  0  0
    7.8214   -2.7482   21.8816 C   0  0  0  0  0  0  0  0  0  0  0  0
    6.8631   -3.8980   22.2641 C   0  0  0  0  0  0  0  0  0  0  0  0
  1  2  3  0
  2  3  1  0
  3  4  1  0
  3  5  1  0
  5  6  1  0
  6  7  1  0
  7  8  1  0
  7 15  1  0
  9  8  1  6
  9 10  1  0
 10 11  1  0
 11 12  1  0
 12 13  1  0
 13 14  1  0
 14  9  1  0
 15 16  1  0
 16  3  1  0
M  END
>  <Hit>  (208) 
Mpro-x0387_0

>  <Receptor>  (208) 
Mpro-x0874_0

>  <SCORE>  (208) 
-11.252000000000001

>  <SCORE.norm>  (208) 
-0.70325300000000002

>  <SCORE.heavy>  (208) 
16

>  <OrigSmiles>  (208) 
C#CC1(O)CCN(CC2CCCNC2)CC1

>  <SuCOS_Score>  (208) 
0.33627983371480907

>  <Max_SuCOS_Score>  (208) 
0

>  <Cum_SuCOS_Score>  (208) 
0

>  <TransFSScore_50nM>  (208) 
0.007835

>  <TransFSScore_1uM>  (208) 
0.080362000000000003

>  <TransFSScore_10nM>  (208) 
0.064133999999999997

>  <TransFSScore_200nM>  (208) 
0.123806

>  <TransFSScore>  (208) 
0.069034249999999991

>  <FeatureSteinScore>  (208) 
0.50054150832663546

$$$$
C#CC1(O)CCN(CC2CCCO2)CC1
     RDKit          3D

 15 16  0  0  0  0  0  0  0  0999 V2000
    7.6565   -6.1857   28.5468 C   0  0  0  0  0  0  0  0  0  0  0  0
    8.2748   -5.9917   27.5298 C   0  0  0  0  0  0  0  0  0  0  0  0
    9.0343   -5.7531   26.2814 C   0  0  0  0  0  0  0  0  0  0  0  0
    9.6276   -6.9628   25.8755 O   0  0  0  0  0  0  0  0  0  0  0  0
    8.0608   -5.2736   25.1974 C   0  0  0  0  0  0  0  0  0  0  0  0
    8.7805   -4.7261   23.9664 C   0  0  0  0  0  0  0  0  0  0  0  0
    9.8721   -3.7706   24.2922 N   0  0  0  0  0  0  0  0  0  0  0  0
   10.1224   -2.6266   23.3890 C   0  0  0  0  0  0  0  0  0  0  0  0
   11.5108   -1.9697   23.4631 C   0  0  1  0  0  0  0  0  0  0  0  0
   11.7562   -1.0446   22.2697 C   0  0  0  0  0  0  0  0  0  0  0  0
   11.4750    0.3163   22.8212 C   0  0  0  0  0  0  0  0  0  0  0  0
   11.7795    0.1484   24.2916 C   0  0  0  0  0  0  0  0  0  0  0  0
   11.6174   -1.2047   24.6493 O   0  0  0  0  0  0  0  0  0  0  0  0
    9.9982   -3.4258   25.7192 C   0  0  0  0  0  0  0  0  0  0  0  0
   10.1509   -4.7103   26.5514 C   0  0  0  0  0  0  0  0  0  0  0  0
  1  2  3  0
  2  3  1  0
  3  4  1  0
  3  5  1  0
  5  6  1  0
  6  7  1  0
  7  8  1  0
  7 14  1  0
  9  8  1  6
  9 10  1  0
 10 11  1  0
 11 12  1  0
 12 13  1  0
 13  9  1  0
 14 15  1  0
 15  3  1  0
M  END
>  <Hit>  (209) 
Mpro-x0387_0

>  <Receptor>  (209) 
Mpro-x0387_0

>  <SCORE>  (209) 
-10.1724

>  <SCORE.norm>  (209) 
-0.67816299999999996

>  <SCORE.heavy>  (209) 
15

>  <OrigSmiles>  (209) 
C#CC1(O)CCN(CC2CCCO2)CC1

>  <SuCOS_Score>  (209) 
0.41784433918742647

>  <Max_SuCOS_Score>  (209) 
0

>  <Cum_SuCOS_Score>  (209) 
0

>  <TransFSScore_50nM>  (209) 
0.031647000000000002

>  <TransFSScore_1uM>  (209) 
0.028910000000000002

>  <TransFSScore_10nM>  (209) 
0.001534

>  <TransFSScore_200nM>  (209) 
0.020743999999999999

>  <TransFSScore>  (209) 
0.020708749999999998

>  <FeatureSteinScore>  (209) 
0.30282122549059515

$$$$
C#CC1(O)CCN(CC2CCCOC2)CC1
     RDKit          3D

 16 17  0  0  0  0  0  0  0  0999 V2000
   10.4205   -5.7301   25.6942 C   0  0  0  0  0  0  0  0  0  0  0  0
    9.4885   -4.9696   25.7950 C   0  0  0  0  0  0  0  0  0  0  0  0
    8.3334   -4.0418   25.9354 C   0  0  0  0  0  0  0  0  0  0  0  0
    7.6877   -4.6462   26.9707 O   0  0  0  0  0  0  0  0  0  0  0  0
    7.4946   -4.0238   24.6696 C   0  0  0  0  0  0  0  0  0  0  0  0
    8.4311   -3.7566   23.4979 C   0  0  0  0  0  0  0  0  0  0  0  0
    9.5560   -2.8420   23.8233 N   0  0  0  0  0  0  0  0  0  0  0  0
   10.2096   -2.1770   22.6939 C   0  0  0  0  0  0  0  0  0  0  0  0
   11.6067   -1.5717   22.9465 C   0  0  1  0  0  0  0  0  0  0  0  0
   12.3480   -1.4344   21.5989 C   0  0  0  0  0  0  0  0  0  0  0  0
   13.6918   -0.7194   21.7821 C   0  0  0  0  0  0  0  0  0  0  0  0
   13.5659    0.4734   22.7461 C   0  0  0  0  0  0  0  0  0  0  0  0
   12.2130    0.8403   22.9330 O   0  0  0  0  0  0  0  0  0  0  0  0
   11.5340   -0.1787   23.6479 C   0  0  0  0  0  0  0  0  0  0  0  0
    9.2512   -1.8875   24.9168 C   0  0  0  0  0  0  0  0  0  0  0  0
    8.8500   -2.6199   26.2260 C   0  0  0  0  0  0  0  0  0  0  0  0
  1  2  3  0
  2  3  1  0
  3  4  1  0
  3  5  1  0
  5  6  1  0
  6  7  1  0
  7  8  1  0
  7 15  1  0
  9  8  1  6
  9 10  1  0
 10 11  1  0
 11 12  1  0
 12 13  1  0
 13 14  1  0
 14  9  1  0
 15 16  1  0
 16  3  1  0
M  END
>  <Hit>  (210) 
Mpro-x0387_0

>  <Receptor>  (210) 
Mpro-x0874_0

>  <SCORE>  (210) 
-11.1286

>  <SCORE.norm>  (210) 
-0.69553500000000001

>  <SCORE.heavy>  (210) 
16

>  <OrigSmiles>  (210) 
C#CC1(O)CCN(CC2CCCOC2)CC1

>  <SuCOS_Score>  (210) 
0.5344189204688683

>  <Max_SuCOS_Score>  (210) 
0

>  <Cum_SuCOS_Score>  (210) 
0

>  <TransFSScore_50nM>  (210) 
0.0074110000000000001

>  <TransFSScore_1uM>  (210) 
0.043774

>  <TransFSScore_10nM>  (210) 
0.033154000000000003

>  <TransFSScore_200nM>  (210) 
0.034089000000000001

>  <TransFSScore>  (210) 
0.029607000000000001

>  <FeatureSteinScore>  (210) 
0.57291532550016921

$$$$
C#CC1(O)CCN(CC2CCCS2)CC1
     RDKit          3D

 15 16  0  0  0  0  0  0  0  0999 V2000
    8.8073   -1.6710   27.3288 C   0  0  0  0  0  0  0  0  0  0  0  0
    8.4262   -2.7422   26.9237 C   0  0  0  0  0  0  0  0  0  0  0  0
    7.9686   -4.0789   26.4330 C   0  0  0  0  0  0  0  0  0  0  0  0
    7.3403   -4.5495   27.5496 O   0  0  0  0  0  0  0  0  0  0  0  0
    9.1338   -4.9601   25.9931 C   0  0  0  0  0  0  0  0  0  0  0  0
    9.9942   -4.1202   25.0637 C   0  0  0  0  0  0  0  0  0  0  0  0
    9.2062   -3.2597   24.1460 N   0  0  0  0  0  0  0  0  0  0  0  0
    9.8897   -2.6953   22.9725 C   0  0  0  0  0  0  0  0  0  0  0  0
   11.1219   -1.7982   23.1941 C   0  0  2  0  0  0  0  0  0  0  0  0
   10.8797   -0.5446   24.0403 C   0  0  0  0  0  0  0  0  0  0  0  0
   12.0228    0.4144   23.7514 C   0  0  0  0  0  0  0  0  0  0  0  0
   12.3697    0.3083   22.2737 C   0  0  0  0  0  0  0  0  0  0  0  0
   12.1609   -1.4204   21.7405 S   0  0  0  0  0  0  0  0  0  0  0  0
    7.8242   -3.7295   23.8910 C   0  0  0  0  0  0  0  0  0  0  0  0
    7.0273   -3.8848   25.2249 C   0  0  0  0  0  0  0  0  0  0  0  0
  1  2  3  0
  2  3  1  0
  3  4  1  0
  3  5  1  0
  5  6  1  0
  6  7  1  0
  7  8  1  0
  7 14  1  0
  9  8  1  6
  9 10  1  0
 10 11  1  0
 11 12  1  0
 12 13  1  0
 13  9  1  0
 14 15  1  0
 15  3  1  0
M  END
>  <Hit>  (211) 
Mpro-x0387_0

>  <Receptor>  (211) 
Mpro-x1249_0

>  <SCORE>  (211) 
-11.026300000000001

>  <SCORE.norm>  (211) 
-0.73508899999999999

>  <SCORE.heavy>  (211) 
15

>  <OrigSmiles>  (211) 
C#CC1(O)CCN(CC2CCCS2)CC1

>  <SuCOS_Score>  (211) 
0.54517092206085693

>  <Max_SuCOS_Score>  (211) 
0

>  <Cum_SuCOS_Score>  (211) 
0

>  <TransFSScore_50nM>  (211) 
0.0065279999999999999

>  <TransFSScore_1uM>  (211) 
0.079671000000000006

>  <TransFSScore_10nM>  (211) 
0.0077460000000000003

>  <TransFSScore_200nM>  (211) 
0.117631

>  <TransFSScore>  (211) 
0.052894000000000004

>  <FeatureSteinScore>  (211) 
0.50871451086600916

$$$$
C#CC1(O)CCN(CC2CCNC2)CC1
     RDKit          3D

 15 16  0  0  0  0  0  0  0  0999 V2000
    5.9046   -3.6550   27.0117 C   0  0  0  0  0  0  0  0  0  0  0  0
    6.8136   -4.4138   26.7799 C   0  0  0  0  0  0  0  0  0  0  0  0
    7.9372   -5.3618   26.4866 C   0  0  0  0  0  0  0  0  0  0  0  0
    7.7214   -6.3672   27.3936 O   0  0  0  0  0  0  0  0  0  0  0  0
    9.3239   -4.7526   26.6468 C   0  0  0  0  0  0  0  0  0  0  0  0
    9.2449   -3.3961   26.0195 C   0  0  0  0  0  0  0  0  0  0  0  0
    8.8787   -3.4706   24.5909 N   0  0  0  0  0  0  0  0  0  0  0  0
    8.4407   -2.1629   24.1105 C   0  0  0  0  0  0  0  0  0  0  0  0
    9.6679   -1.3551   23.6130 C   0  0  2  0  0  0  0  0  0  0  0  0
    9.2993    0.0458   23.1306 C   0  0  0  0  0  0  0  0  0  0  0  0
    9.0693   -0.0914   21.6289 C   0  0  0  0  0  0  0  0  0  0  0  0
    9.5797   -1.4005   21.2078 N   0  0  0  0  0  0  0  0  0  0  0  0
   10.2831   -1.9701   22.3557 C   0  0  0  0  0  0  0  0  0  0  0  0
    7.9966   -4.5662   24.0930 C   0  0  0  0  0  0  0  0  0  0  0  0
    7.7869   -5.7749   25.0385 C   0  0  0  0  0  0  0  0  0  0  0  0
  1  2  3  0
  2  3  1  0
  3  4  1  0
  3  5  1  0
  5  6  1  0
  6  7  1  0
  7  8  1  0
  7 14  1  0
  9  8  1  6
  9 10  1  0
 10 11  1  0
 11 12  1  0
 12 13  1  0
 13  9  1  0
 14 15  1  0
 15  3  1  0
M  END
>  <Hit>  (212) 
Mpro-x0387_0

>  <Receptor>  (212) 
Mpro-x1249_0

>  <SCORE>  (212) 
-10.8285

>  <SCORE.norm>  (212) 
-0.72190100000000001

>  <SCORE.heavy>  (212) 
15

>  <OrigSmiles>  (212) 
C#CC1(O)CCN(CC2CCNC2)CC1

>  <SuCOS_Score>  (212) 
0.31790804498260039

>  <Max_SuCOS_Score>  (212) 
0

>  <Cum_SuCOS_Score>  (212) 
0

>  <TransFSScore_50nM>  (212) 
0.015647999999999999

>  <TransFSScore_1uM>  (212) 
0.023639

>  <TransFSScore_10nM>  (212) 
0.013233

>  <TransFSScore_200nM>  (212) 
0.16165099999999999

>  <TransFSScore>  (212) 
0.05354275

>  <FeatureSteinScore>  (212) 
0.34750360015973136

$$$$
C#CC1(O)CCN(CC2CCNCC2)CC1
     RDKit          3D

 16 17  0  0  0  0  0  0  0  0999 V2000
    7.8785   -2.1087   26.5124 C   0  0  0  0  0  0  0  0  0  0  0  0
    8.1137   -3.1255   25.9067 C   0  0  0  0  0  0  0  0  0  0  0  0
    8.4145   -4.3852   25.1525 C   0  0  0  0  0  0  0  0  0  0  0  0
    7.9774   -5.3568   26.0146 O   0  0  0  0  0  0  0  0  0  0  0  0
    9.8865   -4.5616   24.8108 C   0  0  0  0  0  0  0  0  0  0  0  0
   10.3512   -3.2268   24.3124 C   0  0  0  0  0  0  0  0  0  0  0  0
    9.6143   -2.8017   23.0995 N   0  0  0  0  0  0  0  0  0  0  0  0
    9.8196   -1.3640   22.8948 C   0  0  0  0  0  0  0  0  0  0  0  0
   11.3269   -0.9924   23.0025 C   0  0  0  0  0  0  0  0  0  0  0  0
   11.5433    0.4686   23.4920 C   0  0  0  0  0  0  0  0  0  0  0  0
   12.9022    1.0480   23.0571 C   0  0  0  0  0  0  0  0  0  0  0  0
   13.8847   -0.0252   22.8820 N   0  0  0  0  0  0  0  0  0  0  0  0
   13.5411   -0.8706   21.7258 C   0  0  0  0  0  0  0  0  0  0  0  0
   12.0303   -1.1862   21.6423 C   0  0  0  0  0  0  0  0  0  0  0  0
    8.1599   -3.1323   22.9855 C   0  0  0  0  0  0  0  0  0  0  0  0
    7.6501   -4.3102   23.8474 C   0  0  0  0  0  0  0  0  0  0  0  0
  1  2  3  0
  2  3  1  0
  3  4  1  0
  3  5  1  0
  5  6  1  0
  6  7  1  0
  7  8  1  0
  7 15  1  0
  8  9  1  0
  9 10  1  0
 10 11  1  0
 11 12  1  0
 12 13  1  0
 13 14  1  0
 14  9  1  0
 15 16  1  0
 16  3  1  0
M  END
>  <Hit>  (213) 
Mpro-x0387_0

>  <Receptor>  (213) 
Mpro-x1249_0

>  <SCORE>  (213) 
-11.371600000000001

>  <SCORE.norm>  (213) 
-0.71072500000000005

>  <SCORE.heavy>  (213) 
16

>  <OrigSmiles>  (213) 
C#CC1(O)CCN(CC2CCNCC2)CC1

>  <SuCOS_Score>  (213) 
0.42631995751943041

>  <Max_SuCOS_Score>  (213) 
0

>  <Cum_SuCOS_Score>  (213) 
0

>  <TransFSScore_50nM>  (213) 
0.0024719999999999998

>  <TransFSScore_1uM>  (213) 
0.065265000000000004

>  <TransFSScore_10nM>  (213) 
0.031393999999999998

>  <TransFSScore_200nM>  (213) 
0.019310999999999998

>  <TransFSScore>  (213) 
0.029610499999999998

>  <FeatureSteinScore>  (213) 
0.57084984580868092

$$$$
C#CC1(O)CCN(CC2CCOC2)CC1
     RDKit          3D

 15 16  0  0  0  0  0  0  0  0999 V2000
    9.3796   -4.6546   28.7150 C   0  0  0  0  0  0  0  0  0  0  0  0
    9.4553   -4.8338   27.5250 C   0  0  0  0  0  0  0  0  0  0  0  0
    9.5485   -5.0535   26.0639 C   0  0  0  0  0  0  0  0  0  0  0  0
    9.4722   -6.4309   25.7852 O   0  0  0  0  0  0  0  0  0  0  0  0
    8.3752   -4.3630   25.3692 C   0  0  0  0  0  0  0  0  0  0  0  0
    8.7402   -4.1060   23.9241 C   0  0  0  0  0  0  0  0  0  0  0  0
    9.7318   -3.0208   23.8891 N   0  0  0  0  0  0  0  0  0  0  0  0
   10.0788   -2.6718   22.5134 C   0  0  0  0  0  0  0  0  0  0  0  0
   11.0477   -1.4575   22.4086 C   0  0  1  0  0  0  0  0  0  0  0  0
   10.7001   -0.2918   23.3067 C   0  0  0  0  0  0  0  0  0  0  0  0
   12.0513    0.3547   23.5909 C   0  0  0  0  0  0  0  0  0  0  0  0
   13.0549   -0.3186   22.8622 O   0  0  0  0  0  0  0  0  0  0  0  0
   12.5543   -1.6052   22.6044 C   0  0  0  0  0  0  0  0  0  0  0  0
   10.9295   -3.2485   24.7438 C   0  0  0  0  0  0  0  0  0  0  0  0
   10.9251   -4.5595   25.5498 C   0  0  0  0  0  0  0  0  0  0  0  0
  1  2  3  0
  2  3  1  0
  3  4  1  0
  3  5  1  0
  5  6  1  0
  6  7  1  0
  7  8  1  0
  7 14  1  0
  9  8  1  1
  9 10  1  0
 10 11  1  0
 11 12  1  0
 12 13  1  0
 13  9  1  0
 14 15  1  0
 15  3  1  0
M  END
>  <Hit>  (214) 
Mpro-x0387_0

>  <Receptor>  (214) 
Mpro-x0387_0

>  <SCORE>  (214) 
-10.037599999999999

>  <SCORE.norm>  (214) 
-0.66917199999999999

>  <SCORE.heavy>  (214) 
15

>  <OrigSmiles>  (214) 
C#CC1(O)CCN(CC2CCOC2)CC1

>  <SuCOS_Score>  (214) 
0.51286896980409247

>  <Max_SuCOS_Score>  (214) 
0

>  <Cum_SuCOS_Score>  (214) 
0

>  <TransFSScore_50nM>  (214) 
0.0073109999999999998

>  <TransFSScore_1uM>  (214) 
0.026152999999999999

>  <TransFSScore_10nM>  (214) 
0.001647

>  <TransFSScore_200nM>  (214) 
0.042164

>  <TransFSScore>  (214) 
0.019318750000000003

>  <FeatureSteinScore>  (214) 
0.60567458761072479

$$$$
C#CC1(O)CCN(CC2CCOCC2)CC1
     RDKit          3D

 16 17  0  0  0  0  0  0  0  0999 V2000
    7.2443   -6.0919   28.5557 C   0  0  0  0  0  0  0  0  0  0  0  0
    7.9533   -5.9438   27.5915 C   0  0  0  0  0  0  0  0  0  0  0  0
    8.8233   -5.7620   26.4076 C   0  0  0  0  0  0  0  0  0  0  0  0
    9.4029   -7.0006   26.0805 O   0  0  0  0  0  0  0  0  0  0  0  0
    7.9401   -5.3305   25.2357 C   0  0  0  0  0  0  0  0  0  0  0  0
    8.7553   -4.8427   24.0400 C   0  0  0  0  0  0  0  0  0  0  0  0
    9.8204   -3.8708   24.4021 N   0  0  0  0  0  0  0  0  0  0  0  0
   10.1483   -2.7673   23.4732 C   0  0  0  0  0  0  0  0  0  0  0  0
   11.4279   -1.9490   23.7523 C   0  0  0  0  0  0  0  0  0  0  0  0
   11.1391   -0.6914   24.6075 C   0  0  0  0  0  0  0  0  0  0  0  0
   12.4065    0.1638   24.7267 C   0  0  0  0  0  0  0  0  0  0  0  0
   12.8596    0.5727   23.4499 O   0  0  0  0  0  0  0  0  0  0  0  0
   13.2507   -0.5565   22.6919 C   0  0  0  0  0  0  0  0  0  0  0  0
   12.0536   -1.4785   22.4214 C   0  0  0  0  0  0  0  0  0  0  0  0
    9.8438   -3.4666   25.8196 C   0  0  0  0  0  0  0  0  0  0  0  0
    9.9280   -4.7139   26.7136 C   0  0  0  0  0  0  0  0  0  0  0  0
  1  2  3  0
  2  3  1  0
  3  4  1  0
  3  5  1  0
  5  6  1  0
  6  7  1  0
  7  8  1  0
  7 15  1  0
  8  9  1  0
  9 10  1  0
 10 11  1  0
 11 12  1  0
 12 13  1  0
 13 14  1  0
 14  9  1  0
 15 16  1  0
 16  3  1  0
M  END
>  <Hit>  (215) 
Mpro-x0387_0

>  <Receptor>  (215) 
Mpro-x0387_0

>  <SCORE>  (215) 
-10.0204

>  <SCORE.norm>  (215) 
-0.626274

>  <SCORE.heavy>  (215) 
16

>  <OrigSmiles>  (215) 
C#CC1(O)CCN(CC2CCOCC2)CC1

>  <SuCOS_Score>  (215) 
0.47809271140019383

>  <Max_SuCOS_Score>  (215) 
0

>  <Cum_SuCOS_Score>  (215) 
0

>  <TransFSScore_50nM>  (215) 
0.0095029999999999993

>  <TransFSScore_1uM>  (215) 
0.036838000000000003

>  <TransFSScore_10nM>  (215) 
0.0045329999999999997

>  <TransFSScore_200nM>  (215) 
0.033535000000000002

>  <TransFSScore>  (215) 
0.021102250000000003

>  <FeatureSteinScore>  (215) 
0.35523167074250522

$$$$
C#CC1(O)CCN(CC2CCOCO2)CC1
     RDKit          3D

 16 17  0  0  0  0  0  0  0  0999 V2000
   10.6012   -5.7447   26.0471 C   0  0  0  0  0  0  0  0  0  0  0  0
    9.5632   -5.1435   26.1820 C   0  0  0  0  0  0  0  0  0  0  0  0
    8.2908   -4.3839   26.3576 C   0  0  0  0  0  0  0  0  0  0  0  0
    7.7259   -5.0827   27.3847 O   0  0  0  0  0  0  0  0  0  0  0  0
    7.4275   -4.4728   25.1125 C   0  0  0  0  0  0  0  0  0  0  0  0
    8.2883   -4.0736   23.9195 C   0  0  0  0  0  0  0  0  0  0  0  0
    9.2777   -3.0073   24.2269 N   0  0  0  0  0  0  0  0  0  0  0  0
    9.8347   -2.2670   23.0899 C   0  0  0  0  0  0  0  0  0  0  0  0
   11.0618   -1.3917   23.3804 C   0  0  1  0  0  0  0  0  0  0  0  0
   11.8499   -1.1222   22.0832 C   0  0  0  0  0  0  0  0  0  0  0  0
   12.6366    0.1828   22.2405 C   0  0  0  0  0  0  0  0  0  0  0  0
   12.9656    0.3901   23.5967 O   0  0  0  0  0  0  0  0  0  0  0  0
   11.7839    0.5942   24.3655 C   0  0  0  0  0  0  0  0  0  0  0  0
   10.6545   -0.1497   23.9183 O   0  0  0  0  0  0  0  0  0  0  0  0
    8.8656   -2.1091   25.3308 C   0  0  0  0  0  0  0  0  0  0  0  0
    8.5991   -2.8979   26.6424 C   0  0  0  0  0  0  0  0  0  0  0  0
  1  2  3  0
  2  3  1  0
  3  4  1  0
  3  5  1  0
  5  6  1  0
  6  7  1  0
  7  8  1  0
  7 15  1  0
  9  8  1  6
  9 10  1  0
 10 11  1  0
 11 12  1  0
 12 13  1  0
 13 14  1  0
 14  9  1  0
 15 16  1  0
 16  3  1  0
M  END
>  <Hit>  (216) 
Mpro-x0387_0

>  <Receptor>  (216) 
Mpro-x1249_0

>  <SCORE>  (216) 
-10.982799999999999

>  <SCORE.norm>  (216) 
-0.68642300000000001

>  <SCORE.heavy>  (216) 
16

>  <OrigSmiles>  (216) 
C#CC1(O)CCN(CC2CCOCO2)CC1

>  <SuCOS_Score>  (216) 
0.5151247067518433

>  <Max_SuCOS_Score>  (216) 
0

>  <Cum_SuCOS_Score>  (216) 
0

>  <TransFSScore_50nM>  (216) 
0.0049069999999999999

>  <TransFSScore_1uM>  (216) 
0.043801

>  <TransFSScore_10nM>  (216) 
0.012154

>  <TransFSScore_200nM>  (216) 
0.019452000000000001

>  <TransFSScore>  (216) 
0.020078499999999999

>  <FeatureSteinScore>  (216) 
0.49353011902475591

$$$$
C#CC1(O)CCN(CC2CNC(=O)C2)CC1
     RDKit          3D

 16 17  0  0  0  0  0  0  0  0999 V2000
    8.2532   -5.4731   27.5127 C   0  0  0  0  0  0  0  0  0  0  0  0
    8.7955   -5.1829   26.4756 C   0  0  0  0  0  0  0  0  0  0  0  0
    9.4619   -4.8262   25.2022 C   0  0  0  0  0  0  0  0  0  0  0  0
    9.7564   -6.0092   24.4999 O   0  0  0  0  0  0  0  0  0  0  0  0
    8.5044   -3.9642   24.3707 C   0  0  0  0  0  0  0  0  0  0  0  0
    9.1959   -3.3023   23.1809 C   0  0  0  0  0  0  0  0  0  0  0  0
   10.4837   -2.6473   23.5278 N   0  0  0  0  0  0  0  0  0  0  0  0
   10.8640   -1.3915   22.8466 C   0  0  0  0  0  0  0  0  0  0  0  0
    9.8549   -0.2263   22.8780 C   0  0  1  0  0  0  0  0  0  0  0  0
   10.5420    1.1101   22.4661 C   0  0  0  0  0  0  0  0  0  0  0  0
    9.7109    1.7020   21.4392 N   0  0  0  0  0  0  0  0  0  0  0  0
    8.6711    0.8195   21.0950 C   0  0  0  0  0  0  0  0  0  0  0  0
    7.8311    1.0757   20.1928 O   0  0  0  0  0  0  0  0  0  0  0  0
    8.6742   -0.4225   21.8886 C   0  0  0  0  0  0  0  0  0  0  0  0
   10.8159   -2.6437   24.9638 C   0  0  0  0  0  0  0  0  0  0  0  0
   10.7870   -4.0804   25.5082 C   0  0  0  0  0  0  0  0  0  0  0  0
  1  2  3  0
  2  3  1  0
  3  4  1  0
  3  5  1  0
  5  6  1  0
  6  7  1  0
  7  8  1  0
  7 15  1  0
  9  8  1  6
  9 10  1  0
 10 11  1  0
 11 12  1  0
 12 13  2  0
 12 14  1  0
 14  9  1  0
 15 16  1  0
 16  3  1  0
M  END
>  <Hit>  (217) 
Mpro-x0387_0

>  <Receptor>  (217) 
Mpro-x0387_0

>  <SCORE>  (217) 
-11.2906

>  <SCORE.norm>  (217) 
-0.70566099999999998

>  <SCORE.heavy>  (217) 
16

>  <OrigSmiles>  (217) 
C#CC1(O)CCN(CC2CNC(=O)C2)CC1

>  <SuCOS_Score>  (217) 
0.33554030946948848

>  <Max_SuCOS_Score>  (217) 
0

>  <Cum_SuCOS_Score>  (217) 
0

>  <TransFSScore_50nM>  (217) 
0.0020669999999999998

>  <TransFSScore_1uM>  (217) 
0.051354999999999998

>  <TransFSScore_10nM>  (217) 
0.0013470000000000001

>  <TransFSScore_200nM>  (217) 
0.0051279999999999997

>  <TransFSScore>  (217) 
0.01497425

>  <FeatureSteinScore>  (217) 
0.37643256821476873

$$$$
C#CC1(O)CCN(CC2CNC(=O)O2)CC1
     RDKit          3D

 16 17  0  0  0  0  0  0  0  0999 V2000
    9.2439   -3.4923   27.9925 C   0  0  0  0  0  0  0  0  0  0  0  0
    9.2004   -4.2101   27.0236 C   0  0  0  0  0  0  0  0  0  0  0  0
    9.1487   -5.1098   25.8254 C   0  0  0  0  0  0  0  0  0  0  0  0
    8.6395   -6.2702   26.3481 O   0  0  0  0  0  0  0  0  0  0  0  0
   10.4976   -5.3447   25.1611 C   0  0  0  0  0  0  0  0  0  0  0  0
   11.1647   -4.0082   25.1214 C   0  0  0  0  0  0  0  0  0  0  0  0
   10.3859   -3.0257   24.3436 N   0  0  0  0  0  0  0  0  0  0  0  0
   10.8478   -1.6729   24.6411 C   0  0  0  0  0  0  0  0  0  0  0  0
   11.6087   -1.0717   23.4439 C   0  0  1  0  0  0  0  0  0  0  0  0
   12.7252   -0.0387   23.7728 C   0  0  0  0  0  0  0  0  0  0  0  0
   13.8650   -0.4579   22.9711 N   0  0  0  0  0  0  0  0  0  0  0  0
   13.5052   -1.6552   22.3193 C   0  0  0  0  0  0  0  0  0  0  0  0
   14.2827   -2.3005   21.5694 O   0  0  0  0  0  0  0  0  0  0  0  0
   12.2238   -2.0591   22.6194 O   0  0  0  0  0  0  0  0  0  0  0  0
    8.8950   -3.1036   24.3159 C   0  0  0  0  0  0  0  0  0  0  0  0
    8.2572   -4.4266   24.8111 C   0  0  0  0  0  0  0  0  0  0  0  0
  1  2  3  0
  2  3  1  0
  3  4  1  0
  3  5  1  0
  5  6  1  0
  6  7  1  0
  7  8  1  0
  7 15  1  0
  9  8  1  1
  9 10  1  0
 10 11  1  0
 11 12  1  0
 12 13  2  0
 12 14  1  0
 14  9  1  0
 15 16  1  0
 16  3  1  0
M  END
>  <Hit>  (218) 
Mpro-x0387_0

>  <Receptor>  (218) 
Mpro-x0387_0

>  <SCORE>  (218) 
-10.7774

>  <SCORE.norm>  (218) 
-0.67358600000000002

>  <SCORE.heavy>  (218) 
16

>  <OrigSmiles>  (218) 
C#CC1(O)CCN(CC2CNC(=O)O2)CC1

>  <SuCOS_Score>  (218) 
0.50866369898979191

>  <Max_SuCOS_Score>  (218) 
0

>  <Cum_SuCOS_Score>  (218) 
0

>  <TransFSScore_50nM>  (218) 
0.018334

>  <TransFSScore_1uM>  (218) 
0.037470999999999997

>  <TransFSScore_10nM>  (218) 
0.001253

>  <TransFSScore_200nM>  (218) 
0.018941

>  <TransFSScore>  (218) 
0.018999749999999996

>  <FeatureSteinScore>  (218) 
0.37139045175310292

$$$$
C#CC1(O)CCN(CC2CNCCO2)CC1
     RDKit          3D

 16 17  0  0  0  0  0  0  0  0999 V2000
    7.6524   -2.7244   27.6754 C   0  0  0  0  0  0  0  0  0  0  0  0
    8.0180   -3.8310   27.3621 C   0  0  0  0  0  0  0  0  0  0  0  0
    8.4634   -5.2031   26.9803 C   0  0  0  0  0  0  0  0  0  0  0  0
    8.5992   -5.7784   28.2113 O   0  0  0  0  0  0  0  0  0  0  0  0
    9.7816   -5.2164   26.2299 C   0  0  0  0  0  0  0  0  0  0  0  0
    9.6804   -4.1318   25.1984 C   0  0  0  0  0  0  0  0  0  0  0  0
    8.5638   -4.3687   24.2530 N   0  0  0  0  0  0  0  0  0  0  0  0
    8.2716   -3.1259   23.5306 C   0  0  0  0  0  0  0  0  0  0  0  0
    9.3563   -2.8293   22.4678 C   0  0  1  0  0  0  0  0  0  0  0  0
    9.1080   -1.4588   21.7750 C   0  0  0  0  0  0  0  0  0  0  0  0
   10.3685   -0.9057   21.2719 N   0  0  0  0  0  0  0  0  0  0  0  0
   11.3224   -0.6889   22.3723 C   0  0  0  0  0  0  0  0  0  0  0  0
   11.1407   -1.7057   23.5149 C   0  0  0  0  0  0  0  0  0  0  0  0
   10.6692   -2.9405   23.0141 O   0  0  0  0  0  0  0  0  0  0  0  0
    7.2935   -4.9660   24.7686 C   0  0  0  0  0  0  0  0  0  0  0  0
    7.3958   -5.7846   26.0751 C   0  0  0  0  0  0  0  0  0  0  0  0
  1  2  3  0
  2  3  1  0
  3  4  1  0
  3  5  1  0
  5  6  1  0
  6  7  1  0
  7  8  1  0
  7 15  1  0
  9  8  1  1
  9 10  1  0
 10 11  1  0
 11 12  1  0
 12 13  1  0
 13 14  1  0
 14  9  1  0
 15 16  1  0
 16  3  1  0
M  END
>  <Hit>  (219) 
Mpro-x0387_0

>  <Receptor>  (219) 
Mpro-x0305_0

>  <SCORE>  (219) 
-11.126899999999999

>  <SCORE.norm>  (219) 
-0.695434

>  <SCORE.heavy>  (219) 
16

>  <OrigSmiles>  (219) 
C#CC1(O)CCN(CC2CNCCO2)CC1

>  <SuCOS_Score>  (219) 
0.34245335606563782

>  <Max_SuCOS_Score>  (219) 
0

>  <Cum_SuCOS_Score>  (219) 
0

>  <TransFSScore_50nM>  (219) 
0.019945000000000001

>  <TransFSScore_1uM>  (219) 
0.014227

>  <TransFSScore_10nM>  (219) 
0.000571

>  <TransFSScore_200nM>  (219) 
0.0064469999999999996

>  <TransFSScore>  (219) 
0.010297500000000001

>  <FeatureSteinScore>  (219) 
0.16360719316211148

$$$$
C#CC1(O)CCN(CC2CNCCS2)CC1
     RDKit          3D

 16 17  0  0  0  0  0  0  0  0999 V2000
    7.3711   -6.3750   27.7574 C   0  0  0  0  0  0  0  0  0  0  0  0
    7.9957   -5.9775   26.8055 C   0  0  0  0  0  0  0  0  0  0  0  0
    8.7596   -5.4913   25.6412 C   0  0  0  0  0  0  0  0  0  0  0  0
    9.4971   -6.5824   25.1507 O   0  0  0  0  0  0  0  0  0  0  0  0
    7.7591   -5.0345   24.5747 C   0  0  0  0  0  0  0  0  0  0  0  0
    8.4272   -4.2489   23.4483 C   0  0  0  0  0  0  0  0  0  0  0  0
    9.3689   -3.2032   23.9276 N   0  0  0  0  0  0  0  0  0  0  0  0
    9.5032   -1.9462   23.1588 C   0  0  0  0  0  0  0  0  0  0  0  0
   10.8058   -1.1447   23.3317 C   0  0  2  0  0  0  0  0  0  0  0  0
   10.6092    0.3606   23.0394 C   0  0  0  0  0  0  0  0  0  0  0  0
   11.7556    1.1708   23.4962 N   0  0  0  0  0  0  0  0  0  0  0  0
   13.0753    0.5323   23.3118 C   0  0  0  0  0  0  0  0  0  0  0  0
   13.1425   -0.3271   22.0469 C   0  0  0  0  0  0  0  0  0  0  0  0
   12.0692   -1.8095   22.1673 S   0  0  0  0  0  0  0  0  0  0  0  0
    9.4019   -3.0075   25.3887 C   0  0  0  0  0  0  0  0  0  0  0  0
    9.7071   -4.3438   26.0872 C   0  0  0  0  0  0  0  0  0  0  0  0
  1  2  3  0
  2  3  1  0
  3  4  1  0
  3  5  1  0
  5  6  1  0
  6  7  1  0
  7  8  1  0
  7 15  1  0
  9  8  1  6
  9 10  1  0
 10 11  1  0
 11 12  1  0
 12 13  1  0
 13 14  1  0
 14  9  1  0
 15 16  1  0
 16  3  1  0
M  END
>  <Hit>  (220) 
Mpro-x0387_0

>  <Receptor>  (220) 
Mpro-x0874_0

>  <SCORE>  (220) 
-11.736000000000001

>  <SCORE.norm>  (220) 
-0.73350300000000002

>  <SCORE.heavy>  (220) 
16

>  <OrigSmiles>  (220) 
C#CC1(O)CCN(CC2CNCCS2)CC1

>  <SuCOS_Score>  (220) 
0.51953239109897797

>  <Max_SuCOS_Score>  (220) 
0

>  <Cum_SuCOS_Score>  (220) 
0

>  <TransFSScore_50nM>  (220) 
0.0046629999999999996

>  <TransFSScore_1uM>  (220) 
0.012265

>  <TransFSScore_10nM>  (220) 
0.00065799999999999995

>  <TransFSScore_200nM>  (220) 
0.0025799999999999998

>  <TransFSScore>  (220) 
0.0050414999999999991

>  <FeatureSteinScore>  (220) 
0.47813747600880069

$$$$
C#CC1(O)CCN(CC2COCCN2)CC1
     RDKit          3D

 16 17  0  0  0  0  0  0  0  0999 V2000
    9.0855   -1.5749   26.8471 C   0  0  0  0  0  0  0  0  0  0  0  0
    8.7339   -2.6287   26.3748 C   0  0  0  0  0  0  0  0  0  0  0  0
    8.2973   -3.9204   25.7753 C   0  0  0  0  0  0  0  0  0  0  0  0
    7.5979   -4.4153   26.8311 O   0  0  0  0  0  0  0  0  0  0  0  0
    9.4850   -4.8012   25.4219 C   0  0  0  0  0  0  0  0  0  0  0  0
   10.4460   -3.9498   24.6071 C   0  0  0  0  0  0  0  0  0  0  0  0
    9.7632   -3.0313   23.6590 N   0  0  0  0  0  0  0  0  0  0  0  0
   10.5684   -2.4192   22.5895 C   0  0  0  0  0  0  0  0  0  0  0  0
   11.8760   -1.6999   22.9784 C   0  0  2  0  0  0  0  0  0  0  0  0
   11.6347   -0.3955   23.7848 C   0  0  0  0  0  0  0  0  0  0  0  0
   12.8573    0.2117   24.1544 O   0  0  0  0  0  0  0  0  0  0  0  0
   13.6115    0.5088   22.9976 C   0  0  0  0  0  0  0  0  0  0  0  0
   14.0027   -0.7827   22.2754 C   0  0  0  0  0  0  0  0  0  0  0  0
   12.7999   -1.5039   21.8492 N   0  0  0  0  0  0  0  0  0  0  0  0
    8.4031   -3.4564   23.2529 C   0  0  0  0  0  0  0  0  0  0  0  0
    7.4763   -3.6439   24.4958 C   0  0  0  0  0  0  0  0  0  0  0  0
  1  2  3  0
  2  3  1  0
  3  4  1  0
  3  5  1  0
  5  6  1  0
  6  7  1  0
  7  8  1  0
  7 15  1  0
  9  8  1  6
  9 10  1  0
 10 11  1  0
 11 12  1  0
 12 13  1  0
 13 14  1  0
 14  9  1  0
 15 16  1  0
 16  3  1  0
M  END
>  <Hit>  (221) 
Mpro-x0387_0

>  <Receptor>  (221) 
Mpro-x0305_0

>  <SCORE>  (221) 
-11.4307

>  <SCORE.norm>  (221) 
-0.71441900000000003

>  <SCORE.heavy>  (221) 
16

>  <OrigSmiles>  (221) 
C#CC1(O)CCN(CC2COCCN2)CC1

>  <SuCOS_Score>  (221) 
0.46746418238315152

>  <Max_SuCOS_Score>  (221) 
0

>  <Cum_SuCOS_Score>  (221) 
0

>  <TransFSScore_50nM>  (221) 
0.0062810000000000001

>  <TransFSScore_1uM>  (221) 
0.012211

>  <TransFSScore_10nM>  (221) 
0.00034099999999999999

>  <TransFSScore_200nM>  (221) 
0.0038920000000000001

>  <TransFSScore>  (221) 
0.0056812500000000005

>  <FeatureSteinScore>  (221) 
0.39267951358103825

$$$$
C#CC1(O)CCN(CC2COCCO2)CC1
     RDKit          3D

 16 17  0  0  0  0  0  0  0  0999 V2000
    7.1593   -5.9142   28.5045 C   0  0  0  0  0  0  0  0  0  0  0  0
    7.9596   -5.8445   27.6052 C   0  0  0  0  0  0  0  0  0  0  0  0
    8.9419   -5.7587   26.5005 C   0  0  0  0  0  0  0  0  0  0  0  0
    9.3790   -7.0579   26.1828 O   0  0  0  0  0  0  0  0  0  0  0  0
    8.2540   -5.1390   25.2778 C   0  0  0  0  0  0  0  0  0  0  0  0
    9.2472   -4.7421   24.1874 C   0  0  0  0  0  0  0  0  0  0  0  0
   10.4171   -3.9802   24.6983 N   0  0  0  0  0  0  0  0  0  0  0  0
   11.0035   -2.9110   23.8620 C   0  0  0  0  0  0  0  0  0  0  0  0
   10.1394   -1.6633   23.6097 C   0  0  1  0  0  0  0  0  0  0  0  0
   10.8566   -0.6656   22.6612 C   0  0  0  0  0  0  0  0  0  0  0  0
    9.8976    0.1250   21.9958 O   0  0  0  0  0  0  0  0  0  0  0  0
    9.1331   -0.6855   21.1201 C   0  0  0  0  0  0  0  0  0  0  0  0
    8.7815   -2.0602   21.7282 C   0  0  0  0  0  0  0  0  0  0  0  0
    8.8389   -2.0144   23.1401 O   0  0  0  0  0  0  0  0  0  0  0  0
   10.3662   -3.6382   26.1306 C   0  0  0  0  0  0  0  0  0  0  0  0
   10.1602   -4.9161   26.9617 C   0  0  0  0  0  0  0  0  0  0  0  0
  1  2  3  0
  2  3  1  0
  3  4  1  0
  3  5  1  0
  5  6  1  0
  6  7  1  0
  7  8  1  0
  7 15  1  0
  9  8  1  6
  9 10  1  0
 10 11  1  0
 11 12  1  0
 12 13  1  0
 13 14  1  0
 14  9  1  0
 15 16  1  0
 16  3  1  0
M  END
>  <Hit>  (222) 
Mpro-x0387_0

>  <Receptor>  (222) 
Mpro-x0387_0

>  <SCORE>  (222) 
-10.047800000000001

>  <SCORE.norm>  (222) 
-0.62799000000000005

>  <SCORE.heavy>  (222) 
16

>  <OrigSmiles>  (222) 
C#CC1(O)CCN(CC2COCCO2)CC1

>  <SuCOS_Score>  (222) 
0.32289076947681822

>  <Max_SuCOS_Score>  (222) 
0

>  <Cum_SuCOS_Score>  (222) 
0

>  <TransFSScore_50nM>  (222) 
0.011801000000000001

>  <TransFSScore_1uM>  (222) 
0.018595

>  <TransFSScore_10nM>  (222) 
0.000175

>  <TransFSScore_200nM>  (222) 
0.001348

>  <TransFSScore>  (222) 
0.0079797500000000007

>  <FeatureSteinScore>  (222) 
0.26022007838308264

$$$$
C#CC1(O)CCN(CC2CSCCN2)CC1
     RDKit          3D

 16 17  0  0  0  0  0  0  0  0999 V2000
    9.1912   -4.6454   28.7436 C   0  0  0  0  0  0  0  0  0  0  0  0
    9.2935   -4.8286   27.5562 C   0  0  0  0  0  0  0  0  0  0  0  0
    9.4193   -5.0540   26.0996 C   0  0  0  0  0  0  0  0  0  0  0  0
    9.3818   -6.4346   25.8342 O   0  0  0  0  0  0  0  0  0  0  0  0
    8.2120   -4.4325   25.4038 C   0  0  0  0  0  0  0  0  0  0  0  0
    8.5404   -4.2226   23.9443 C   0  0  0  0  0  0  0  0  0  0  0  0
    9.4951   -3.1152   23.8496 N   0  0  0  0  0  0  0  0  0  0  0  0
    9.8172   -2.7603   22.4751 C   0  0  0  0  0  0  0  0  0  0  0  0
    9.1279   -1.4320   22.0872 C   0  0  1  0  0  0  0  0  0  0  0  0
    9.8262   -0.1752   22.6798 C   0  0  0  0  0  0  0  0  0  0  0  0
    9.7192    1.2958   21.5931 S   0  0  0  0  0  0  0  0  0  0  0  0
    7.9924    0.9784   21.1048 C   0  0  0  0  0  0  0  0  0  0  0  0
    7.8651   -0.3271   20.2975 C   0  0  0  0  0  0  0  0  0  0  0  0
    8.8906   -1.3311   20.6325 N   0  0  0  0  0  0  0  0  0  0  0  0
   10.6543   -3.1737   24.7705 C   0  0  0  0  0  0  0  0  0  0  0  0
   10.7630   -4.4808   25.5736 C   0  0  0  0  0  0  0  0  0  0  0  0
  1  2  3  0
  2  3  1  0
  3  4  1  0
  3  5  1  0
  5  6  1  0
  6  7  1  0
  7  8  1  0
  7 15  1  0
  9  8  1  6
  9 10  1  0
 10 11  1  0
 11 12  1  0
 12 13  1  0
 13 14  1  0
 14  9  1  0
 15 16  1  0
 16  3  1  0
M  END
>  <Hit>  (223) 
Mpro-x0387_0

>  <Receptor>  (223) 
Mpro-x0387_0

>  <SCORE>  (223) 
-13.114100000000001

>  <SCORE.norm>  (223) 
-0.819631

>  <SCORE.heavy>  (223) 
16

>  <OrigSmiles>  (223) 
C#CC1(O)CCN(CC2CSCCN2)CC1

>  <SuCOS_Score>  (223) 
0.37090638578607449

>  <Max_SuCOS_Score>  (223) 
0

>  <Cum_SuCOS_Score>  (223) 
0

>  <TransFSScore_50nM>  (223) 
0.0020379999999999999

>  <TransFSScore_1uM>  (223) 
0.017305999999999998

>  <TransFSScore_10nM>  (223) 
0.00035199999999999999

>  <TransFSScore_200nM>  (223) 
0.013913999999999999

>  <TransFSScore>  (223) 
0.0084025000000000002

>  <FeatureSteinScore>  (223) 
0.45513187845965658

$$$$
C#CC1(O)CCN(CC2[C@H]3CNC[C@@H]23)CC1
     RDKit          3D

 16 18  0  0  0  0  0  0  0  0999 V2000
    9.4941   -3.0250   27.8890 C   0  0  0  0  0  0  0  0  0  0  0  0
    9.2883   -4.0364   27.2631 C   0  0  0  0  0  0  0  0  0  0  0  0
    9.0547   -5.2860   26.4892 C   0  0  0  0  0  0  0  0  0  0  0  0
    8.7326   -6.1221   27.5146 O   0  0  0  0  0  0  0  0  0  0  0  0
   10.3212   -5.7209   25.7682 C   0  0  0  0  0  0  0  0  0  0  0  0
   10.8341   -4.5245   24.9710 C   0  0  0  0  0  0  0  0  0  0  0  0
    9.7522   -3.6678   24.4181 N   0  0  0  0  0  0  0  0  0  0  0  0
   10.1249   -2.7791   23.3150 C   0  0  0  0  0  0  0  0  0  0  0  0
   11.5172   -2.1574   23.4326 C   0  0  2  0  0  0  0  0  0  0  0  0
   11.5910   -0.6746   23.0859 C   0  0  1  0  0  0  0  0  0  0  0  0
   12.7982    0.0731   23.6198 C   0  0  0  0  0  0  0  0  0  0  0  0
   14.0071   -0.6278   23.1854 N   0  0  0  0  0  0  0  0  0  0  0  0
   13.6232   -1.5014   22.0753 C   0  0  0  0  0  0  0  0  0  0  0  0
   12.1162   -1.6911   22.1058 C   0  0  1  0  0  0  0  0  0  0  0  0
    8.4846   -4.3894   24.1625 C   0  0  0  0  0  0  0  0  0  0  0  0
    7.9332   -5.0501   25.4573 C   0  0  0  0  0  0  0  0  0  0  0  0
  1  2  3  0
  2  3  1  0
  3  4  1  0
  3  5  1  0
  5  6  1  0
  6  7  1  0
  7  8  1  0
  7 15  1  0
  9  8  1  6
  9 10  1  0
 10 11  1  1
 11 12  1  0
 12 13  1  0
 14 13  1  1
 14  9  1  0
 14 10  1  0
 15 16  1  0
 16  3  1  0
M  END
>  <Hit>  (224) 
Mpro-x0387_0

>  <Receptor>  (224) 
Mpro-x0387_0

>  <SCORE>  (224) 
-13.797700000000001

>  <SCORE.norm>  (224) 
-0.86235499999999998

>  <SCORE.heavy>  (224) 
16

>  <OrigSmiles>  (224) 
C#CC1(O)CCN(CC2[C@H]3CNC[C@@H]23)CC1

>  <SuCOS_Score>  (224) 
0.58814531370916179

>  <Max_SuCOS_Score>  (224) 
0

>  <Cum_SuCOS_Score>  (224) 
0

>  <TransFSScore_50nM>  (224) 
0.005104

>  <TransFSScore_1uM>  (224) 
0.088057999999999997

>  <TransFSScore_10nM>  (224) 
0.0039050000000000001

>  <TransFSScore_200nM>  (224) 
0.079649999999999999

>  <TransFSScore>  (224) 
0.044179250000000003

>  <FeatureSteinScore>  (224) 
0.32470426203361213

$$$$
C#CC1(O)CCN(CN2C(=O)c3ccccc3C2=O)CC1
     RDKit          3D

 21 23  0  0  0  0  0  0  0  0999 V2000
    9.9673   -6.6196   25.9301 C   0  0  0  0  0  0  0  0  0  0  0  0
    9.4440   -5.6384   25.4635 C   0  0  0  0  0  0  0  0  0  0  0  0
    8.8036   -4.4375   24.8926 C   0  0  0  0  0  0  0  0  0  0  0  0
    7.9426   -3.9416   25.8865 O   0  0  0  0  0  0  0  0  0  0  0  0
    9.8902   -3.4095   24.6147 C   0  0  0  0  0  0  0  0  0  0  0  0
    9.3329   -2.2713   23.7761 C   0  0  0  0  0  0  0  0  0  0  0  0
    9.0393   -2.7639   22.4225 N   0  0  0  0  0  0  0  0  0  0  0  0
    8.5842   -1.6550   21.5583 C   0  0  0  0  0  0  0  0  0  0  0  0
    9.7237   -0.8978   20.9825 N   0  0  0  0  0  0  0  0  0  0  0  0
    9.5061    0.5310   21.0556 C   0  0  0  0  0  0  0  0  0  0  0  0
    8.6144    1.1340   20.4003 O   0  0  0  0  0  0  0  0  0  0  0  0
   10.4629    1.1965   21.9259 C   0  0  0  0  0  0  0  0  0  0  0  0
   10.6027    2.5389   22.2766 C   0  0  0  0  0  0  0  0  0  0  0  0
   11.6552    2.8873   23.1424 C   0  0  0  0  0  0  0  0  0  0  0  0
   12.5364    1.8968   23.6279 C   0  0  0  0  0  0  0  0  0  0  0  0
   12.3706    0.5519   23.2506 C   0  0  0  0  0  0  0  0  0  0  0  0
   11.3146    0.2392   22.3952 C   0  0  0  0  0  0  0  0  0  0  0  0
   10.8936   -1.0286   21.8202 C   0  0  0  0  0  0  0  0  0  0  0  0
   11.5040   -2.1184   21.9909 O   0  0  0  0  0  0  0  0  0  0  0  0
    8.0235   -3.8396   22.4198 C   0  0  0  0  0  0  0  0  0  0  0  0
    8.0360   -4.8329   23.6040 C   0  0  0  0  0  0  0  0  0  0  0  0
  1  2  3  0
  2  3  1  0
  3  4  1  0
  3  5  1  0
  5  6  1  0
  6  7  1  0
  7  8  1  0
  7 20  1  0
  8  9  1  0
  9 10  1  0
 10 11  2  0
 10 12  1  0
 12 13  2  0
 13 14  1  0
 14 15  2  0
 15 16  1  0
 16 17  2  0
 17 18  1  0
 17 12  1  0
 18 19  2  0
 18  9  1  0
 20 21  1  0
 21  3  1  0
M  END
>  <Hit>  (225) 
Mpro-x0387_0

>  <Receptor>  (225) 
Mpro-x0305_0

>  <SCORE>  (225) 
-14.5618

>  <SCORE.norm>  (225) 
-0.69341799999999998

>  <SCORE.heavy>  (225) 
21

>  <OrigSmiles>  (225) 
C#CC1(O)CCN(CN2C(=O)c3ccccc3C2=O)CC1

>  <SuCOS_Score>  (225) 
0.30582384253923439

>  <Max_SuCOS_Score>  (225) 
0

>  <Cum_SuCOS_Score>  (225) 
0

>  <TransFSScore_50nM>  (225) 
0.12598500000000001

>  <TransFSScore_1uM>  (225) 
0.26763100000000001

>  <TransFSScore_10nM>  (225) 
0.076028999999999999

>  <TransFSScore_200nM>  (225) 
0.197681

>  <TransFSScore>  (225) 
0.16683150000000002

>  <FeatureSteinScore>  (225) 
0.3082836736122459

$$$$
C#CC1(O)CCN(C[C@@H]2CCCCN2)CC1
     RDKit          3D

 16 17  0  0  0  0  0  0  0  0999 V2000
   10.4477   -5.5064   25.3415 C   0  0  0  0  0  0  0  0  0  0  0  0
    9.5102   -4.8010   25.6249 C   0  0  0  0  0  0  0  0  0  0  0  0
    8.3454   -3.9456   25.9848 C   0  0  0  0  0  0  0  0  0  0  0  0
    7.8719   -4.6648   27.0374 O   0  0  0  0  0  0  0  0  0  0  0  0
    7.3377   -3.8717   24.8486 C   0  0  0  0  0  0  0  0  0  0  0  0
    8.1072   -3.4987   23.5903 C   0  0  0  0  0  0  0  0  0  0  0  0
    9.1929   -2.5123   23.8303 N   0  0  0  0  0  0  0  0  0  0  0  0
    9.7423   -1.7972   22.6680 C   0  0  0  0  0  0  0  0  0  0  0  0
   11.2059   -1.3135   22.7362 C   0  0  2  0  0  0  0  0  0  0  0  0
   11.4279   -0.1779   23.7726 C   0  0  0  0  0  0  0  0  0  0  0  0
   12.5334    0.7930   23.3353 C   0  0  0  0  0  0  0  0  0  0  0  0
   13.6979    0.0321   22.6996 C   0  0  0  0  0  0  0  0  0  0  0  0
   13.2452   -0.8168   21.4903 C   0  0  0  0  0  0  0  0  0  0  0  0
   11.7836   -0.9950   21.4190 N   0  0  0  0  0  0  0  0  0  0  0  0
    8.9977   -1.6597   25.0266 C   0  0  0  0  0  0  0  0  0  0  0  0
    8.8373   -2.5204   26.3169 C   0  0  0  0  0  0  0  0  0  0  0  0
  1  2  3  0
  2  3  1  0
  3  4  1  0
  3  5  1  0
  5  6  1  0
  6  7  1  0
  7  8  1  0
  7 15  1  0
  9  8  1  6
  9 10  1  0
 10 11  1  0
 11 12  1  0
 12 13  1  0
 13 14  1  0
 14  9  1  0
 15 16  1  0
 16  3  1  0
M  END
>  <Hit>  (226) 
Mpro-x0387_0

>  <Receptor>  (226) 
Mpro-x0874_0

>  <SCORE>  (226) 
-12.4015

>  <SCORE.norm>  (226) 
-0.77509399999999995

>  <SCORE.heavy>  (226) 
16

>  <OrigSmiles>  (226) 
C#CC1(O)CCN(C[C@@H]2CCCCN2)CC1

>  <SuCOS_Score>  (226) 
0.47819122410259729

>  <Max_SuCOS_Score>  (226) 
0

>  <Cum_SuCOS_Score>  (226) 
0

>  <TransFSScore_50nM>  (226) 
0.027053000000000001

>  <TransFSScore_1uM>  (226) 
0.056841000000000003

>  <TransFSScore_10nM>  (226) 
0.014897000000000001

>  <TransFSScore_200nM>  (226) 
0.049388000000000001

>  <TransFSScore>  (226) 
0.037044750000000001

>  <FeatureSteinScore>  (226) 
0.49562433567902353

$$$$
C#CC1(O)CCN(C[C@@H]2CCCN2)CC1
     RDKit          3D

 15 16  0  0  0  0  0  0  0  0999 V2000
    8.7620   -1.6162   27.0784 C   0  0  0  0  0  0  0  0  0  0  0  0
    8.4066   -2.6765   26.6239 C   0  0  0  0  0  0  0  0  0  0  0  0
    7.9520   -3.9750   26.0564 C   0  0  0  0  0  0  0  0  0  0  0  0
    7.2848   -4.4674   27.1364 O   0  0  0  0  0  0  0  0  0  0  0  0
    9.1365   -4.8434   25.6708 C   0  0  0  0  0  0  0  0  0  0  0  0
   10.0528   -4.0094   24.7841 C   0  0  0  0  0  0  0  0  0  0  0  0
    9.3308   -3.0593   23.8989 N   0  0  0  0  0  0  0  0  0  0  0  0
   10.0587   -2.5655   22.7278 C   0  0  0  0  0  0  0  0  0  0  0  0
   11.3985   -1.8434   22.9847 C   0  0  2  0  0  0  0  0  0  0  0  0
   11.2134   -0.4201   23.5407 C   0  0  0  0  0  0  0  0  0  0  0  0
   12.0372    0.4880   22.6468 C   0  0  0  0  0  0  0  0  0  0  0  0
   12.8950   -0.4533   21.8289 C   0  0  0  0  0  0  0  0  0  0  0  0
   12.1537   -1.7060   21.7261 N   0  0  0  0  0  0  0  0  0  0  0  0
    7.9582   -3.4958   23.5473 C   0  0  0  0  0  0  0  0  0  0  0  0
    7.0825   -3.7148   24.8113 C   0  0  0  0  0  0  0  0  0  0  0  0
  1  2  3  0
  2  3  1  0
  3  4  1  0
  3  5  1  0
  5  6  1  0
  6  7  1  0
  7  8  1  0
  7 14  1  0
  9  8  1  6
  9 10  1  0
 10 11  1  0
 11 12  1  0
 12 13  1  0
 13  9  1  0
 14 15  1  0
 15  3  1  0
M  END
>  <Hit>  (227) 
Mpro-x0387_0

>  <Receptor>  (227) 
Mpro-x1249_0

>  <SCORE>  (227) 
-12.7737

>  <SCORE.norm>  (227) 
-0.85158100000000003

>  <SCORE.heavy>  (227) 
15

>  <OrigSmiles>  (227) 
C#CC1(O)CCN(C[C@@H]2CCCN2)CC1

>  <SuCOS_Score>  (227) 
0.43063716585939271

>  <Max_SuCOS_Score>  (227) 
0

>  <Cum_SuCOS_Score>  (227) 
0

>  <TransFSScore_50nM>  (227) 
0.039031999999999997

>  <TransFSScore_1uM>  (227) 
0.054217000000000001

>  <TransFSScore_10nM>  (227) 
0.0060140000000000002

>  <TransFSScore_200nM>  (227) 
0.046773000000000002

>  <TransFSScore>  (227) 
0.036509

>  <FeatureSteinScore>  (227) 
0.35234053726534936

$$$$
C#CC1(O)CCN(C[C@@H]2CCCNC2)CC1
     RDKit          3D

 16 17  0  0  0  0  0  0  0  0999 V2000
    5.8376   -3.6819   27.7789 C   0  0  0  0  0  0  0  0  0  0  0  0
    6.7135   -4.4530   27.4722 C   0  0  0  0  0  0  0  0  0  0  0  0
    7.7955   -5.4168   27.0877 C   0  0  0  0  0  0  0  0  0  0  0  0
    7.6476   -6.4196   28.0114 O   0  0  0  0  0  0  0  0  0  0  0  0
    9.1941   -4.8261   27.1309 C   0  0  0  0  0  0  0  0  0  0  0  0
    9.0830   -3.4722   26.5108 C   0  0  0  0  0  0  0  0  0  0  0  0
    8.5952   -3.5329   25.1199 N   0  0  0  0  0  0  0  0  0  0  0  0
    8.1085   -2.2225   24.6985 C   0  0  0  0  0  0  0  0  0  0  0  0
    9.1248   -1.4925   23.7905 C   0  0  2  0  0  0  0  0  0  0  0  0
    8.8861    0.0249   23.6441 C   0  0  0  0  0  0  0  0  0  0  0  0
   10.0246    0.6709   22.8477 C   0  0  0  0  0  0  0  0  0  0  0  0
   10.2475   -0.0673   21.5199 C   0  0  0  0  0  0  0  0  0  0  0  0
   10.5372   -1.4928   21.7458 N   0  0  0  0  0  0  0  0  0  0  0  0
    9.4199   -2.1666   22.4277 C   0  0  0  0  0  0  0  0  0  0  0  0
    7.6682   -4.6245   24.6953 C   0  0  0  0  0  0  0  0  0  0  0  0
    7.5215   -5.8298   25.6580 C   0  0  0  0  0  0  0  0  0  0  0  0
  1  2  3  0
  2  3  1  0
  3  4  1  0
  3  5  1  0
  5  6  1  0
  6  7  1  0
  7  8  1  0
  7 15  1  0
  9  8  1  6
  9 10  1  0
 10 11  1  0
 11 12  1  0
 12 13  1  0
 13 14  1  0
 14  9  1  0
 15 16  1  0
 16  3  1  0
M  END
>  <Hit>  (228) 
Mpro-x0387_0

>  <Receptor>  (228) 
Mpro-x1249_0

>  <SCORE>  (228) 
-10.7233

>  <SCORE.norm>  (228) 
-0.67020900000000005

>  <SCORE.heavy>  (228) 
16

>  <OrigSmiles>  (228) 
C#CC1(O)CCN(C[C@@H]2CCCNC2)CC1

>  <SuCOS_Score>  (228) 
0.27471960525160027

>  <Max_SuCOS_Score>  (228) 
0

>  <Cum_SuCOS_Score>  (228) 
0

>  <TransFSScore_50nM>  (228) 
0.026662999999999999

>  <TransFSScore_1uM>  (228) 
0.015166000000000001

>  <TransFSScore_10nM>  (228) 
0.032441999999999999

>  <TransFSScore_200nM>  (228) 
0.35657800000000001

>  <TransFSScore>  (228) 
0.10771225000000001

>  <FeatureSteinScore>  (228) 
0.27395429175971081

$$$$
C#CC1(O)CCN(C[C@@H]2CCNC2)CC1
     RDKit          3D

 15 16  0  0  0  0  0  0  0  0999 V2000
    7.7133   -2.9150   27.1690 C   0  0  0  0  0  0  0  0  0  0  0  0
    8.0141   -3.9941   26.7203 C   0  0  0  0  0  0  0  0  0  0  0  0
    8.3807   -5.3325   26.1718 C   0  0  0  0  0  0  0  0  0  0  0  0
    8.3626   -6.0880   27.3095 O   0  0  0  0  0  0  0  0  0  0  0  0
    9.7538   -5.3586   25.5285 C   0  0  0  0  0  0  0  0  0  0  0  0
    9.8296   -4.1333   24.6663 C   0  0  0  0  0  0  0  0  0  0  0  0
    8.7839   -4.1279   23.6167 N   0  0  0  0  0  0  0  0  0  0  0  0
    8.6540   -2.7725   23.0728 C   0  0  0  0  0  0  0  0  0  0  0  0
    9.8665   -2.4130   22.1762 C   0  0  2  0  0  0  0  0  0  0  0  0
   11.1933   -2.2879   22.9211 C   0  0  0  0  0  0  0  0  0  0  0  0
   11.9313   -1.1359   22.2451 C   0  0  0  0  0  0  0  0  0  0  0  0
   11.0450   -0.5352   21.2472 N   0  0  0  0  0  0  0  0  0  0  0  0
    9.7069   -1.0353   21.5429 C   0  0  0  0  0  0  0  0  0  0  0  0
    7.4307   -4.6774   23.9393 C   0  0  0  0  0  0  0  0  0  0  0  0
    7.3536   -5.6795   25.1129 C   0  0  0  0  0  0  0  0  0  0  0  0
  1  2  3  0
  2  3  1  0
  3  4  1  0
  3  5  1  0
  5  6  1  0
  6  7  1  0
  7  8  1  0
  7 14  1  0
  9  8  1  1
  9 10  1  0
 10 11  1  0
 11 12  1  0
 12 13  1  0
 13  9  1  0
 14 15  1  0
 15  3  1  0
M  END
>  <Hit>  (229) 
Mpro-x0387_0

>  <Receptor>  (229) 
Mpro-x1249_0

>  <SCORE>  (229) 
-10.9474

>  <SCORE.norm>  (229) 
-0.72982499999999995

>  <SCORE.heavy>  (229) 
15

>  <OrigSmiles>  (229) 
C#CC1(O)CCN(C[C@@H]2CCNC2)CC1

>  <SuCOS_Score>  (229) 
0.30538661842784703

>  <Max_SuCOS_Score>  (229) 
0

>  <Cum_SuCOS_Score>  (229) 
0

>  <TransFSScore_50nM>  (229) 
0.0056470000000000001

>  <TransFSScore_1uM>  (229) 
0.024087999999999998

>  <TransFSScore_10nM>  (229) 
0.017054

>  <TransFSScore_200nM>  (229) 
0.156581

>  <TransFSScore>  (229) 
0.050842499999999999

>  <FeatureSteinScore>  (229) 
0.22482691864445783

$$$$
C#CC1(O)CCN(C[C@@H]2[C@H]3CNC[C@H]32)CC1
     RDKit          3D

 16 18  0  0  0  0  0  0  0  0999 V2000
    9.7822   -2.0112   27.6907 C   0  0  0  0  0  0  0  0  0  0  0  0
    9.6083   -3.1540   27.3428 C   0  0  0  0  0  0  0  0  0  0  0  0
    9.3728   -4.5607   26.9182 C   0  0  0  0  0  0  0  0  0  0  0  0
    9.1503   -5.1225   28.1381 O   0  0  0  0  0  0  0  0  0  0  0  0
   10.6054   -5.1350   26.2363 C   0  0  0  0  0  0  0  0  0  0  0  0
   11.0203   -4.1614   25.1360 C   0  0  0  0  0  0  0  0  0  0  0  0
    9.8726   -3.4937   24.4663 N   0  0  0  0  0  0  0  0  0  0  0  0
   10.1431   -2.8919   23.1564 C   0  0  0  0  0  0  0  0  0  0  0  0
   11.5770   -2.3923   22.9675 C   0  0  2  0  0  0  0  0  0  0  0  0
   11.7008   -0.8696   22.9459 C   0  0  1  0  0  0  0  0  0  0  0  0
   13.0710   -0.2972   23.2699 C   0  0  0  0  0  0  0  0  0  0  0  0
   14.0587   -0.9239   22.3855 N   0  0  0  0  0  0  0  0  0  0  0  0
   13.3261   -1.5353   21.2725 C   0  0  0  0  0  0  0  0  0  0  0  0
   11.8639   -1.6491   21.6654 C   0  0  1  0  0  0  0  0  0  0  0  0
    8.6207   -4.2846   24.4885 C   0  0  0  0  0  0  0  0  0  0  0  0
    8.1788   -4.6115   25.9433 C   0  0  0  0  0  0  0  0  0  0  0  0
  1  2  3  0
  2  3  1  0
  3  4  1  0
  3  5  1  0
  5  6  1  0
  6  7  1  0
  7  8  1  0
  7 15  1  0
  9  8  1  6
  9 10  1  0
 10 11  1  1
 11 12  1  0
 12 13  1  0
 14 13  1  1
 14  9  1  0
 14 10  1  0
 15 16  1  0
 16  3  1  0
M  END
>  <Hit>  (230) 
Mpro-x0387_0

>  <Receptor>  (230) 
Mpro-x0387_0

>  <SCORE>  (230) 
-12.6599

>  <SCORE.norm>  (230) 
-0.79124300000000003

>  <SCORE.heavy>  (230) 
16

>  <OrigSmiles>  (230) 
C#CC1(O)CCN(C[C@@H]2[C@H]3CNC[C@H]32)CC1

>  <SuCOS_Score>  (230) 
0.65204583725287113

>  <Max_SuCOS_Score>  (230) 
0

>  <Cum_SuCOS_Score>  (230) 
0

>  <TransFSScore_50nM>  (230) 
0.0039979999999999998

>  <TransFSScore_1uM>  (230) 
0.063876000000000002

>  <TransFSScore_10nM>  (230) 
0.0058570000000000002

>  <TransFSScore_200nM>  (230) 
0.089365

>  <TransFSScore>  (230) 
0.040774000000000005

>  <FeatureSteinScore>  (230) 
0.3268855610490824

$$$$
C#CC1(O)CCN(C[C@H]2CCCCN2)CC1
     RDKit          3D

 16 17  0  0  0  0  0  0  0  0999 V2000
   10.2470   -5.9754   25.8558 C   0  0  0  0  0  0  0  0  0  0  0  0
    9.2163   -5.4046   26.1169 C   0  0  0  0  0  0  0  0  0  0  0  0
    7.9476   -4.6902   26.4449 C   0  0  0  0  0  0  0  0  0  0  0  0
    7.6237   -5.2915   27.6256 O   0  0  0  0  0  0  0  0  0  0  0  0
    6.8470   -4.8973   25.4196 C   0  0  0  0  0  0  0  0  0  0  0  0
    7.4977   -4.7128   24.0833 C   0  0  0  0  0  0  0  0  0  0  0  0
    8.0460   -3.3486   23.9257 N   0  0  0  0  0  0  0  0  0  0  0  0
    8.9531   -3.3294   22.7711 C   0  0  0  0  0  0  0  0  0  0  0  0
    9.5344   -1.9217   22.4544 C   0  0  1  0  0  0  0  0  0  0  0  0
   11.0124   -1.6900   22.8862 C   0  0  0  0  0  0  0  0  0  0  0  0
   11.7335   -0.6904   21.9732 C   0  0  0  0  0  0  0  0  0  0  0  0
   10.8144    0.4790   21.6167 C   0  0  0  0  0  0  0  0  0  0  0  0
    9.5013    0.0109   20.9482 C   0  0  0  0  0  0  0  0  0  0  0  0
    9.2609   -1.4402   21.0805 N   0  0  0  0  0  0  0  0  0  0  0  0
    8.7126   -2.7091   25.1023 C   0  0  0  0  0  0  0  0  0  0  0  0
    8.2723   -3.2100   26.4972 C   0  0  0  0  0  0  0  0  0  0  0  0
  1  2  3  0
  2  3  1  0
  3  4  1  0
  3  5  1  0
  5  6  1  0
  6  7  1  0
  7  8  1  0
  7 15  1  0
  9  8  1  6
  9 10  1  0
 10 11  1  0
 11 12  1  0
 12 13  1  0
 13 14  1  0
 14  9  1  0
 15 16  1  0
 16  3  1  0
M  END
>  <Hit>  (231) 
Mpro-x0387_0

>  <Receptor>  (231) 
Mpro-x1249_0

>  <SCORE>  (231) 
-10.671799999999999

>  <SCORE.norm>  (231) 
-0.66698900000000005

>  <SCORE.heavy>  (231) 
16

>  <OrigSmiles>  (231) 
C#CC1(O)CCN(C[C@H]2CCCCN2)CC1

>  <SuCOS_Score>  (231) 
0.30926284029998696

>  <Max_SuCOS_Score>  (231) 
0

>  <Cum_SuCOS_Score>  (231) 
0

>  <TransFSScore_50nM>  (231) 
0.014198000000000001

>  <TransFSScore_1uM>  (231) 
0.044241000000000003

>  <TransFSScore_10nM>  (231) 
0.01866

>  <TransFSScore_200nM>  (231) 
0.080398999999999998

>  <TransFSScore>  (231) 
0.0393745

>  <FeatureSteinScore>  (231) 
0.2682797684168558

$$$$
C#CC1(O)CCN(C[C@H]2CCCN2)CC1
     RDKit          3D

 15 16  0  0  0  0  0  0  0  0999 V2000
    8.4404   -5.2738   28.9227 C   0  0  0  0  0  0  0  0  0  0  0  0
    8.7606   -5.3761   27.7646 C   0  0  0  0  0  0  0  0  0  0  0  0
    9.1533   -5.5018   26.3431 C   0  0  0  0  0  0  0  0  0  0  0  0
    9.2221   -6.8624   25.9890 O   0  0  0  0  0  0  0  0  0  0  0  0
    8.0990   -4.8252   25.4628 C   0  0  0  0  0  0  0  0  0  0  0  0
    8.7090   -4.5049   24.1168 C   0  0  0  0  0  0  0  0  0  0  0  0
    9.6587   -3.4037   24.2993 N   0  0  0  0  0  0  0  0  0  0  0  0
   10.2462   -2.9497   23.0480 C   0  0  0  0  0  0  0  0  0  0  0  0
   10.0390   -1.4143   22.9350 C   0  0  1  0  0  0  0  0  0  0  0  0
   10.5570   -0.6734   24.1662 C   0  0  0  0  0  0  0  0  0  0  0  0
   12.0022   -0.3755   23.8416 C   0  0  0  0  0  0  0  0  0  0  0  0
   12.0655   -0.3507   22.3192 C   0  0  0  0  0  0  0  0  0  0  0  0
   10.7858   -0.8497   21.7976 N   0  0  0  0  0  0  0  0  0  0  0  0
   10.6050   -3.5328   25.4303 C   0  0  0  0  0  0  0  0  0  0  0  0
   10.5664   -4.8978   26.1370 C   0  0  0  0  0  0  0  0  0  0  0  0
  1  2  3  0
  2  3  1  0
  3  4  1  0
  3  5  1  0
  5  6  1  0
  6  7  1  0
  7  8  1  0
  7 14  1  0
  9  8  1  1
  9 10  1  0
 10 11  1  0
 11 12  1  0
 12 13  1  0
 13  9  1  0
 14 15  1  0
 15  3  1  0
M  END
>  <Hit>  (232) 
Mpro-x0387_0

>  <Receptor>  (232) 
Mpro-x0387_0

>  <SCORE>  (232) 
-12.7736

>  <SCORE.norm>  (232) 
-0.851572

>  <SCORE.heavy>  (232) 
15

>  <OrigSmiles>  (232) 
C#CC1(O)CCN(C[C@H]2CCCN2)CC1

>  <SuCOS_Score>  (232) 
0.47252432341990069

>  <Max_SuCOS_Score>  (232) 
0

>  <Cum_SuCOS_Score>  (232) 
0

>  <TransFSScore_50nM>  (232) 
0.096892000000000006

>  <TransFSScore_1uM>  (232) 
0.048703999999999997

>  <TransFSScore_10nM>  (232) 
0.0064809999999999998

>  <TransFSScore_200nM>  (232) 
0.091121999999999995

>  <TransFSScore>  (232) 
0.06079975

>  <FeatureSteinScore>  (232) 
0.42689516137243594

$$$$
C#CC1(O)CCN(C[C@H]2CCCNC2)CC1
     RDKit          3D

 16 17  0  0  0  0  0  0  0  0999 V2000
    8.0965   -3.1273   28.6155 C   0  0  0  0  0  0  0  0  0  0  0  0
    8.2916   -4.0622   27.8779 C   0  0  0  0  0  0  0  0  0  0  0  0
    8.5245   -5.2215   26.9675 C   0  0  0  0  0  0  0  0  0  0  0  0
    8.5088   -6.2577   27.8583 O   0  0  0  0  0  0  0  0  0  0  0  0
    9.8524   -5.1606   26.2424 C   0  0  0  0  0  0  0  0  0  0  0  0
    9.9950   -3.7531   25.7608 C   0  0  0  0  0  0  0  0  0  0  0  0
    8.8941   -3.3551   24.8618 N   0  0  0  0  0  0  0  0  0  0  0  0
    8.8380   -1.9002   24.7494 C   0  0  0  0  0  0  0  0  0  0  0  0
    9.9357   -1.3498   23.8105 C   0  0  1  0  0  0  0  0  0  0  0  0
   11.3266   -1.1466   24.4512 C   0  0  0  0  0  0  0  0  0  0  0  0
   12.2733   -0.4703   23.4545 C   0  0  0  0  0  0  0  0  0  0  0  0
   12.3031   -1.2447   22.1289 C   0  0  0  0  0  0  0  0  0  0  0  0
   10.9571   -1.3462   21.5420 N   0  0  0  0  0  0  0  0  0  0  0  0
   10.0280   -2.0559   22.4369 C   0  0  0  0  0  0  0  0  0  0  0  0
    7.5306   -3.9396   25.0385 C   0  0  0  0  0  0  0  0  0  0  0  0
    7.4195   -5.1993   25.9321 C   0  0  0  0  0  0  0  0  0  0  0  0
  1  2  3  0
  2  3  1  0
  3  4  1  0
  3  5  1  0
  5  6  1  0
  6  7  1  0
  7  8  1  0
  7 15  1  0
  9  8  1  1
  9 10  1  0
 10 11  1  0
 11 12  1  0
 12 13  1  0
 13 14  1  0
 14  9  1  0
 15 16  1  0
 16  3  1  0
M  END
>  <Hit>  (233) 
Mpro-x0387_0

>  <Receptor>  (233) 
Mpro-x0387_0

>  <SCORE>  (233) 
-10.9137

>  <SCORE.norm>  (233) 
-0.68210300000000001

>  <SCORE.heavy>  (233) 
16

>  <OrigSmiles>  (233) 
C#CC1(O)CCN(C[C@H]2CCCNC2)CC1

>  <SuCOS_Score>  (233) 
0.46805845376340738

>  <Max_SuCOS_Score>  (233) 
0

>  <Cum_SuCOS_Score>  (233) 
0

>  <TransFSScore_50nM>  (233) 
0.059757999999999999

>  <TransFSScore_1uM>  (233) 
0.043906000000000001

>  <TransFSScore_10nM>  (233) 
0.013729

>  <TransFSScore_200nM>  (233) 
0.20164899999999999

>  <TransFSScore>  (233) 
0.079760499999999998

>  <FeatureSteinScore>  (233) 
0.25831184534162915

$$$$
C#CC1(O)CCN(C[C@H]2CCNC2)CC1
     RDKit          3D

 15 16  0  0  0  0  0  0  0  0999 V2000
   10.2483   -5.2865   26.4630 C   0  0  0  0  0  0  0  0  0  0  0  0
    9.3590   -4.4983   26.2535 C   0  0  0  0  0  0  0  0  0  0  0  0
    8.2616   -3.5173   25.9846 C   0  0  0  0  0  0  0  0  0  0  0  0
    7.2651   -3.9837   26.7989 O   0  0  0  0  0  0  0  0  0  0  0  0
    7.7761   -3.5221   24.5473 C   0  0  0  0  0  0  0  0  0  0  0  0
    9.0059   -3.5677   23.6985 C   0  0  0  0  0  0  0  0  0  0  0  0
    9.8798   -2.4044   23.9352 N   0  0  0  0  0  0  0  0  0  0  0  0
   11.2105   -2.6520   23.3876 C   0  0  0  0  0  0  0  0  0  0  0  0
   11.8167   -1.3820   22.7421 C   0  0  1  0  0  0  0  0  0  0  0  0
   12.0776   -0.2036   23.6753 C   0  0  0  0  0  0  0  0  0  0  0  0
   13.3596    0.4170   23.1498 C   0  0  0  0  0  0  0  0  0  0  0  0
   14.0987   -0.6288   22.4469 N   0  0  0  0  0  0  0  0  0  0  0  0
   13.1039   -1.5634   21.9217 C   0  0  0  0  0  0  0  0  0  0  0  0
    9.9497   -1.7778   25.2875 C   0  0  0  0  0  0  0  0  0  0  0  0
    8.8146   -2.1346   26.2774 C   0  0  0  0  0  0  0  0  0  0  0  0
  1  2  3  0
  2  3  1  0
  3  4  1  0
  3  5  1  0
  5  6  1  0
  6  7  1  0
  7  8  1  0
  7 14  1  0
  9  8  1  1
  9 10  1  0
 10 11  1  0
 11 12  1  0
 12 13  1  0
 13  9  1  0
 14 15  1  0
 15  3  1  0
M  END
>  <Hit>  (234) 
Mpro-x0387_0

>  <Receptor>  (234) 
Mpro-x0305_0

>  <SCORE>  (234) 
-10.257999999999999

>  <SCORE.norm>  (234) 
-0.68386800000000003

>  <SCORE.heavy>  (234) 
15

>  <OrigSmiles>  (234) 
C#CC1(O)CCN(C[C@H]2CCNC2)CC1

>  <SuCOS_Score>  (234) 
0.51980700721268769

>  <Max_SuCOS_Score>  (234) 
0

>  <Cum_SuCOS_Score>  (234) 
0

>  <TransFSScore_50nM>  (234) 
0.0024130000000000002

>  <TransFSScore_1uM>  (234) 
0.029423999999999999

>  <TransFSScore_10nM>  (234) 
0.019413

>  <TransFSScore_200nM>  (234) 
0.064839999999999995

>  <TransFSScore>  (234) 
0.0290225

>  <FeatureSteinScore>  (234) 
0.43289129199612003

$$$$
C#CC1(O)CCN(C[C@H]2[C@@H]3C[C@H]2CN3)CC1
     RDKit          3D

 16 18  0  0  0  0  0  0  0  0999 V2000
    7.3487   -6.6060   28.4470 C   0  0  0  0  0  0  0  0  0  0  0  0
    7.8474   -6.1261   27.4596 C   0  0  0  0  0  0  0  0  0  0  0  0
    8.4602   -5.5374   26.2470 C   0  0  0  0  0  0  0  0  0  0  0  0
    9.2092   -6.5322   25.5916 O   0  0  0  0  0  0  0  0  0  0  0  0
    7.3406   -5.0469   25.3190 C   0  0  0  0  0  0  0  0  0  0  0  0
    7.8633   -4.1669   24.1839 C   0  0  0  0  0  0  0  0  0  0  0  0
    8.8117   -3.1168   24.6375 N   0  0  0  0  0  0  0  0  0  0  0  0
    8.8094   -1.8071   23.9524 C   0  0  0  0  0  0  0  0  0  0  0  0
   10.1969   -1.1770   23.6836 C   0  0  1  0  0  0  0  0  0  0  0  0
   11.0925   -1.7942   22.5977 C   0  0  2  0  0  0  0  0  0  0  0  0
   11.7875   -0.4377   22.4868 C   0  0  0  0  0  0  0  0  0  0  0  0
   10.3629    0.0365   22.7584 C   0  0  1  0  0  0  0  0  0  0  0  0
    9.7135   -0.4497   21.4569 C   0  0  0  0  0  0  0  0  0  0  0  0
   10.2732   -1.8161   21.3748 N   0  0  0  0  0  0  0  0  0  0  0  0
    8.9886   -3.0152   26.0959 C   0  0  0  0  0  0  0  0  0  0  0  0
    9.4100   -4.3823   26.6615 C   0  0  0  0  0  0  0  0  0  0  0  0
  1  2  3  0
  2  3  1  0
  3  4  1  0
  3  5  1  0
  5  6  1  0
  6  7  1  0
  7  8  1  0
  7 15  1  0
  9  8  1  6
  9 10  1  0
 10 11  1  6
 12 11  1  6
 12 13  1  0
 12  9  1  0
 13 14  1  0
 14 10  1  0
 15 16  1  0
 16  3  1  0
M  END
>  <Hit>  (235) 
Mpro-x0387_0

>  <Receptor>  (235) 
Mpro-x0874_0

>  <SCORE>  (235) 
-12.388400000000001

>  <SCORE.norm>  (235) 
-0.77427299999999999

>  <SCORE.heavy>  (235) 
16

>  <OrigSmiles>  (235) 
C#CC1(O)CCN(C[C@H]2[C@@H]3C[C@H]2CN3)CC1

>  <SuCOS_Score>  (235) 
0.4118873436243663

>  <Max_SuCOS_Score>  (235) 
0

>  <Cum_SuCOS_Score>  (235) 
0

>  <TransFSScore_50nM>  (235) 
0.0057429999999999998

>  <TransFSScore_1uM>  (235) 
0.023515000000000001

>  <TransFSScore_10nM>  (235) 
0.0024680000000000001

>  <TransFSScore_200nM>  (235) 
0.103746

>  <TransFSScore>  (235) 
0.033868000000000002

>  <FeatureSteinScore>  (235) 
0.54224177445216382

$$$$
C#CC1(O)CCN(Cc2c[nH]cn2)CC1
     RDKit          3D

 15 16  0  0  0  0  0  0  0  0999 V2000
    7.6581   -6.3611   27.8038 C   0  0  0  0  0  0  0  0  0  0  0  0
    8.1781   -5.9960   26.7789 C   0  0  0  0  0  0  0  0  0  0  0  0
    8.8172   -5.5476   25.5209 C   0  0  0  0  0  0  0  0  0  0  0  0
    9.6303   -6.5875   25.0316 O   0  0  0  0  0  0  0  0  0  0  0  0
    7.7180   -5.2330   24.4960 C   0  0  0  0  0  0  0  0  0  0  0  0
    8.2598   -4.4964   23.2704 C   0  0  0  0  0  0  0  0  0  0  0  0
    9.1414   -3.3493   23.6136 N   0  0  0  0  0  0  0  0  0  0  0  0
    9.1094   -2.1550   22.7452 C   0  0  0  0  0  0  0  0  0  0  0  0
   10.4150   -1.4462   22.5718 C   0  0  0  0  0  0  0  0  0  0  0  0
   11.1020   -0.7399   23.5377 C   0  0  0  0  0  0  0  0  0  0  0  0
   12.2498   -0.2975   22.9931 N   0  0  0  0  0  0  0  0  0  0  0  0
   12.2462   -0.7406   21.7205 C   0  0  0  0  0  0  0  0  0  0  0  0
   11.1366   -1.4486   21.4356 N   0  0  0  0  0  0  0  0  0  0  0  0
    9.2514   -3.0445   25.0500 C   0  0  0  0  0  0  0  0  0  0  0  0
    9.7037   -4.3060   25.8096 C   0  0  0  0  0  0  0  0  0  0  0  0
  1  2  3  0
  2  3  1  0
  3  4  1  0
  3  5  1  0
  5  6  1  0
  6  7  1  0
  7  8  1  0
  7 14  1  0
  8  9  1  0
  9 10  2  0
 10 11  1  0
 11 12  1  0
 12 13  2  0
 13  9  1  0
 14 15  1  0
 15  3  1  0
M  END
>  <Hit>  (236) 
Mpro-x0387_0

>  <Receptor>  (236) 
Mpro-x0874_0

>  <SCORE>  (236) 
-10.396699999999999

>  <SCORE.norm>  (236) 
-0.69311100000000003

>  <SCORE.heavy>  (236) 
15

>  <OrigSmiles>  (236) 
C#CC1(O)CCN(Cc2c[nH]cn2)CC1

>  <SuCOS_Score>  (236) 
0.38022310593586606

>  <Max_SuCOS_Score>  (236) 
0

>  <Cum_SuCOS_Score>  (236) 
0

>  <TransFSScore_50nM>  (236) 
0.019161999999999998

>  <TransFSScore_1uM>  (236) 
0.078570000000000001

>  <TransFSScore_10nM>  (236) 
0.033755

>  <TransFSScore_200nM>  (236) 
0.161387

>  <TransFSScore>  (236) 
0.073218499999999992

>  <FeatureSteinScore>  (236) 
0.33649743526196302

$$$$
C#CC1(O)CCN(Cc2cc[nH]n2)CC1
     RDKit          3D

 15 16  0  0  0  0  0  0  0  0999 V2000
    7.7224   -6.3375   27.5805 C   0  0  0  0  0  0  0  0  0  0  0  0
    8.2211   -5.9350   26.5591 C   0  0  0  0  0  0  0  0  0  0  0  0
    8.8330   -5.4413   25.3046 C   0  0  0  0  0  0  0  0  0  0  0  0
    9.5658   -6.4893   24.7163 O   0  0  0  0  0  0  0  0  0  0  0  0
    7.7127   -5.0028   24.3504 C   0  0  0  0  0  0  0  0  0  0  0  0
    8.2456   -4.2196   23.1500 C   0  0  0  0  0  0  0  0  0  0  0  0
    9.2032   -3.1458   23.5247 N   0  0  0  0  0  0  0  0  0  0  0  0
    9.2043   -1.8993   22.7324 C   0  0  0  0  0  0  0  0  0  0  0  0
   10.5458   -1.2776   22.5066 C   0  0  0  0  0  0  0  0  0  0  0  0
   11.2925   -0.5935   23.4424 C   0  0  0  0  0  0  0  0  0  0  0  0
   12.4093   -0.1756   22.7449 C   0  0  0  0  0  0  0  0  0  0  0  0
   12.3239   -0.5849   21.4630 N   0  0  0  0  0  0  0  0  0  0  0  0
   11.1892   -1.2510   21.3261 N   0  0  0  0  0  0  0  0  0  0  0  0
    9.3877   -2.9397   24.9709 C   0  0  0  0  0  0  0  0  0  0  0  0
    9.7987   -4.2700   25.6306 C   0  0  0  0  0  0  0  0  0  0  0  0
  1  2  3  0
  2  3  1  0
  3  4  1  0
  3  5  1  0
  5  6  1  0
  6  7  1  0
  7  8  1  0
  7 14  1  0
  8  9  1  0
  9 10  1  0
 10 11  2  0
 11 12  1  0
 12 13  1  0
 13  9  2  0
 14 15  1  0
 15  3  1  0
M  END
>  <Hit>  (237) 
Mpro-x0387_0

>  <Receptor>  (237) 
Mpro-x0874_0

>  <SCORE>  (237) 
-10.709899999999999

>  <SCORE.norm>  (237) 
-0.71399500000000005

>  <SCORE.heavy>  (237) 
15

>  <OrigSmiles>  (237) 
C#CC1(O)CCN(Cc2cc[nH]n2)CC1

>  <SuCOS_Score>  (237) 
0.37907126661302598

>  <Max_SuCOS_Score>  (237) 
0

>  <Cum_SuCOS_Score>  (237) 
0

>  <TransFSScore_50nM>  (237) 
0.0087469999999999996

>  <TransFSScore_1uM>  (237) 
0.033614999999999999

>  <TransFSScore_10nM>  (237) 
0.011183

>  <TransFSScore_200nM>  (237) 
0.021010000000000001

>  <TransFSScore>  (237) 
0.018638749999999999

>  <FeatureSteinScore>  (237) 
0.31123023241661285

$$$$
C#CC1(O)CCN(Cc2ccccc2)CC1
     RDKit          3D

 16 17  0  0  0  0  0  0  0  0999 V2000
    9.0987   -1.4392   26.9384 C   0  0  0  0  0  0  0  0  0  0  0  0
    8.8617   -2.5418   26.5080 C   0  0  0  0  0  0  0  0  0  0  0  0
    8.5550   -3.8932   25.9654 C   0  0  0  0  0  0  0  0  0  0  0  0
    8.1678   -4.5087   27.1165 O   0  0  0  0  0  0  0  0  0  0  0  0
    9.7975   -4.5302   25.3622 C   0  0  0  0  0  0  0  0  0  0  0  0
   10.3982   -3.5297   24.3787 C   0  0  0  0  0  0  0  0  0  0  0  0
    9.3819   -2.7215   23.6534 N   0  0  0  0  0  0  0  0  0  0  0  0
    9.8295   -2.0699   22.4179 C   0  0  0  0  0  0  0  0  0  0  0  0
   11.0544   -1.2099   22.5639 C   0  0  0  0  0  0  0  0  0  0  0  0
   11.0764   -0.1778   23.5172 C   0  0  0  0  0  0  0  0  0  0  0  0
   12.2147    0.6200   23.6665 C   0  0  0  0  0  0  0  0  0  0  0  0
   13.3376    0.3955   22.8654 C   0  0  0  0  0  0  0  0  0  0  0  0
   13.3242   -0.6276   21.9135 C   0  0  0  0  0  0  0  0  0  0  0  0
   12.1882   -1.4284   21.7605 C   0  0  0  0  0  0  0  0  0  0  0  0
    8.0723   -3.3969   23.5027 C   0  0  0  0  0  0  0  0  0  0  0  0
    7.4633   -3.7768   24.8825 C   0  0  0  0  0  0  0  0  0  0  0  0
  1  2  3  0
  2  3  1  0
  3  4  1  0
  3  5  1  0
  5  6  1  0
  6  7  1  0
  7  8  1  0
  7 15  1  0
  8  9  1  0
  9 10  2  0
 10 11  1  0
 11 12  2  0
 12 13  1  0
 13 14  2  0
 14  9  1  0
 15 16  1  0
 16  3  1  0
M  END
>  <Hit>  (238) 
Mpro-x0387_0

>  <Receptor>  (238) 
Mpro-x1249_0

>  <SCORE>  (238) 
-10.8596

>  <SCORE.norm>  (238) 
-0.67872699999999997

>  <SCORE.heavy>  (238) 
16

>  <OrigSmiles>  (238) 
C#CC1(O)CCN(Cc2ccccc2)CC1

>  <SuCOS_Score>  (238) 
0.59713282296093251

>  <Max_SuCOS_Score>  (238) 
0

>  <Cum_SuCOS_Score>  (238) 
0

>  <TransFSScore_50nM>  (238) 
0.0044650000000000002

>  <TransFSScore_1uM>  (238) 
0.078126000000000001

>  <TransFSScore_10nM>  (238) 
0.155003

>  <TransFSScore_200nM>  (238) 
0.21170600000000001

>  <TransFSScore>  (238) 
0.11232500000000001

>  <FeatureSteinScore>  (238) 
0.69717931654134258

$$$$
C#CC1(O)CCN(Cc2ccccn2)CC1
     RDKit          3D

 16 17  0  0  0  0  0  0  0  0999 V2000
    8.1172   -2.4859   26.8538 C   0  0  0  0  0  0  0  0  0  0  0  0
    8.4391   -3.4754   26.2428 C   0  0  0  0  0  0  0  0  0  0  0  0
    8.8456   -4.7063   25.4908 C   0  0  0  0  0  0  0  0  0  0  0  0
    8.7586   -5.6804   26.4515 O   0  0  0  0  0  0  0  0  0  0  0  0
   10.2447   -4.6277   24.8953 C   0  0  0  0  0  0  0  0  0  0  0  0
   10.3464   -3.2659   24.2733 C   0  0  0  0  0  0  0  0  0  0  0  0
    9.3436   -3.0749   23.1981 N   0  0  0  0  0  0  0  0  0  0  0  0
    9.2323   -1.6435   22.9032 C   0  0  0  0  0  0  0  0  0  0  0  0
   10.6051   -1.0445   22.7311 C   0  0  0  0  0  0  0  0  0  0  0  0
   11.1539   -0.2261   23.7318 C   0  0  0  0  0  0  0  0  0  0  0  0
   12.4305    0.3093   23.5581 C   0  0  0  0  0  0  0  0  0  0  0  0
   13.1473    0.0310   22.3948 C   0  0  0  0  0  0  0  0  0  0  0  0
   12.5728   -0.7820   21.4161 C   0  0  0  0  0  0  0  0  0  0  0  0
   11.3263   -1.2983   21.5987 N   0  0  0  0  0  0  0  0  0  0  0  0
    7.9838   -3.6729   23.3628 C   0  0  0  0  0  0  0  0  0  0  0  0
    7.8689   -4.8636   24.3436 C   0  0  0  0  0  0  0  0  0  0  0  0
  1  2  3  0
  2  3  1  0
  3  4  1  0
  3  5  1  0
  5  6  1  0
  6  7  1  0
  7  8  1  0
  7 15  1  0
  8  9  1  0
  9 10  2  0
 10 11  1  0
 11 12  2  0
 12 13  1  0
 13 14  2  0
 14  9  1  0
 15 16  1  0
 16  3  1  0
M  END
>  <Hit>  (239) 
Mpro-x0387_0

>  <Receptor>  (239) 
Mpro-x1249_0

>  <SCORE>  (239) 
-10.670299999999999

>  <SCORE.norm>  (239) 
-0.66689500000000002

>  <SCORE.heavy>  (239) 
16

>  <OrigSmiles>  (239) 
C#CC1(O)CCN(Cc2ccccn2)CC1

>  <SuCOS_Score>  (239) 
0.4388444788056699

>  <Max_SuCOS_Score>  (239) 
0

>  <Cum_SuCOS_Score>  (239) 
0

>  <TransFSScore_50nM>  (239) 
0.0040569999999999998

>  <TransFSScore_1uM>  (239) 
0.024381

>  <TransFSScore_10nM>  (239) 
0.012104999999999999

>  <TransFSScore_200nM>  (239) 
0.063538999999999998

>  <TransFSScore>  (239) 
0.026020499999999998

>  <FeatureSteinScore>  (239) 
0.67205715211324102

$$$$
C#CC1(O)CCN(Cc2cccnc2)CC1
     RDKit          3D

 16 17  0  0  0  0  0  0  0  0999 V2000
    8.9979   -1.5587   26.9629 C   0  0  0  0  0  0  0  0  0  0  0  0
    8.7647   -2.6574   26.5210 C   0  0  0  0  0  0  0  0  0  0  0  0
    8.4643   -4.0200   25.9918 C   0  0  0  0  0  0  0  0  0  0  0  0
    8.0879   -4.6526   27.1413 O   0  0  0  0  0  0  0  0  0  0  0  0
    9.7112   -4.6631   25.4085 C   0  0  0  0  0  0  0  0  0  0  0  0
   10.3240   -3.6754   24.4191 C   0  0  0  0  0  0  0  0  0  0  0  0
    9.3157   -2.8770   23.6729 N   0  0  0  0  0  0  0  0  0  0  0  0
    9.7768   -2.2351   22.4374 C   0  0  0  0  0  0  0  0  0  0  0  0
   10.9539   -1.3149   22.6035 C   0  0  0  0  0  0  0  0  0  0  0  0
   10.9242   -0.2594   23.5283 C   0  0  0  0  0  0  0  0  0  0  0  0
   12.0266    0.5863   23.6563 C   0  0  0  0  0  0  0  0  0  0  0  0
   13.1521    0.3698   22.8593 C   0  0  0  0  0  0  0  0  0  0  0  0
   13.1708   -0.6572   21.9668 N   0  0  0  0  0  0  0  0  0  0  0  0
   12.1074   -1.4950   21.8244 C   0  0  0  0  0  0  0  0  0  0  0  0
    8.0111   -3.5588   23.5118 C   0  0  0  0  0  0  0  0  0  0  0  0
    7.3883   -3.9306   24.8868 C   0  0  0  0  0  0  0  0  0  0  0  0
  1  2  3  0
  2  3  1  0
  3  4  1  0
  3  5  1  0
  5  6  1  0
  6  7  1  0
  7  8  1  0
  7 15  1  0
  8  9  1  0
  9 10  2  0
 10 11  1  0
 11 12  2  0
 12 13  1  0
 13 14  2  0
 14  9  1  0
 15 16  1  0
 16  3  1  0
M  END
>  <Hit>  (240) 
Mpro-x0387_0

>  <Receptor>  (240) 
Mpro-x1249_0

>  <SCORE>  (240) 
-12.2597

>  <SCORE.norm>  (240) 
-0.766231

>  <SCORE.heavy>  (240) 
16

>  <OrigSmiles>  (240) 
C#CC1(O)CCN(Cc2cccnc2)CC1

>  <SuCOS_Score>  (240) 
0.55011749707008784

>  <Max_SuCOS_Score>  (240) 
0

>  <Cum_SuCOS_Score>  (240) 
0

>  <TransFSScore_50nM>  (240) 
0.003532

>  <TransFSScore_1uM>  (240) 
0.05917

>  <TransFSScore_10nM>  (240) 
0.012814000000000001

>  <TransFSScore_200nM>  (240) 
0.056165

>  <TransFSScore>  (240) 
0.032920249999999998

>  <FeatureSteinScore>  (240) 
0.67395142767246874

$$$$
C#CC1(O)CCN(Cc2cccnn2)CC1
     RDKit          3D

 16 17  0  0  0  0  0  0  0  0999 V2000
    7.4184   -6.4580   28.0005 C   0  0  0  0  0  0  0  0  0  0  0  0
    7.9956   -6.0463   27.0250 C   0  0  0  0  0  0  0  0  0  0  0  0
    8.7040   -5.5406   25.8274 C   0  0  0  0  0  0  0  0  0  0  0  0
    9.4553   -6.5922   25.2729 O   0  0  0  0  0  0  0  0  0  0  0  0
    7.6495   -5.1191   24.7996 C   0  0  0  0  0  0  0  0  0  0  0  0
    8.2434   -4.3156   23.6410 C   0  0  0  0  0  0  0  0  0  0  0  0
    9.1672   -3.2368   24.0806 N   0  0  0  0  0  0  0  0  0  0  0  0
    9.2079   -1.9840   23.2984 C   0  0  0  0  0  0  0  0  0  0  0  0
   10.5704   -1.5334   22.8671 C   0  0  0  0  0  0  0  0  0  0  0  0
   10.9388   -0.1838   22.9211 C   0  0  0  0  0  0  0  0  0  0  0  0
   12.2268    0.1838   22.5397 C   0  0  0  0  0  0  0  0  0  0  0  0
   13.1183   -0.8007   22.1181 C   0  0  0  0  0  0  0  0  0  0  0  0
   12.7185   -2.0999   22.0878 N   0  0  0  0  0  0  0  0  0  0  0  0
   11.4845   -2.4531   22.4541 N   0  0  0  0  0  0  0  0  0  0  0  0
    9.2512   -3.0337   25.5365 C   0  0  0  0  0  0  0  0  0  0  0  0
    9.6345   -4.3586   26.2187 C   0  0  0  0  0  0  0  0  0  0  0  0
  1  2  3  0
  2  3  1  0
  3  4  1  0
  3  5  1  0
  5  6  1  0
  6  7  1  0
  7  8  1  0
  7 15  1  0
  8  9  1  0
  9 10  2  0
 10 11  1  0
 11 12  2  0
 12 13  1  0
 13 14  2  0
 14  9  1  0
 15 16  1  0
 16  3  1  0
M  END
>  <Hit>  (241) 
Mpro-x0387_0

>  <Receptor>  (241) 
Mpro-x0874_0

>  <SCORE>  (241) 
-11.0908

>  <SCORE.norm>  (241) 
-0.69317200000000001

>  <SCORE.heavy>  (241) 
16

>  <OrigSmiles>  (241) 
C#CC1(O)CCN(Cc2cccnn2)CC1

>  <SuCOS_Score>  (241) 
0.46937829073720416

>  <Max_SuCOS_Score>  (241) 
0

>  <Cum_SuCOS_Score>  (241) 
0

>  <TransFSScore_50nM>  (241) 
0.0042290000000000001

>  <TransFSScore_1uM>  (241) 
0.015497

>  <TransFSScore_10nM>  (241) 
0.013164

>  <TransFSScore_200nM>  (241) 
0.057639999999999997

>  <TransFSScore>  (241) 
0.0226325

>  <FeatureSteinScore>  (241) 
0.46302956612692137

$$$$
C#CC1(O)CCN(Cc2ccco2)CC1
     RDKit          3D

 15 16  0  0  0  0  0  0  0  0999 V2000
    8.9468   -5.0070   28.7782 C   0  0  0  0  0  0  0  0  0  0  0  0
    9.1184   -5.1364   27.5916 C   0  0  0  0  0  0  0  0  0  0  0  0
    9.3287   -5.2942   26.1411 C   0  0  0  0  0  0  0  0  0  0  0  0
    9.2207   -6.6649   25.8428 O   0  0  0  0  0  0  0  0  0  0  0  0
    8.2206   -4.5383   25.4027 C   0  0  0  0  0  0  0  0  0  0  0  0
    8.6781   -4.2213   23.9951 C   0  0  0  0  0  0  0  0  0  0  0  0
    9.7308   -3.2043   24.0697 N   0  0  0  0  0  0  0  0  0  0  0  0
   10.1844   -2.7882   22.7532 C   0  0  0  0  0  0  0  0  0  0  0  0
   11.1935   -1.7014   22.9395 C   0  0  0  0  0  0  0  0  0  0  0  0
   12.4785   -1.6969   22.4346 C   0  0  0  0  0  0  0  0  0  0  0  0
   13.0405   -0.5148   22.8660 C   0  0  0  0  0  0  0  0  0  0  0  0
   12.0661    0.1259   23.6051 C   0  0  0  0  0  0  0  0  0  0  0  0
   10.9765   -0.6068   23.6311 O   0  0  0  0  0  0  0  0  0  0  0  0
   10.8051   -3.4323   25.0619 C   0  0  0  0  0  0  0  0  0  0  0  0
   10.7507   -4.8002   25.7626 C   0  0  0  0  0  0  0  0  0  0  0  0
  1  2  3  0
  2  3  1  0
  3  4  1  0
  3  5  1  0
  5  6  1  0
  6  7  1  0
  7  8  1  0
  7 14  1  0
  8  9  1  0
  9 10  2  0
 10 11  1  0
 11 12  2  0
 12 13  1  0
 13  9  1  0
 14 15  1  0
 15  3  1  0
M  END
>  <Hit>  (242) 
Mpro-x0387_0

>  <Receptor>  (242) 
Mpro-x0387_0

>  <SCORE>  (242) 
-9.3516200000000005

>  <SCORE.norm>  (242) 
-0.62344100000000002

>  <SCORE.heavy>  (242) 
15

>  <OrigSmiles>  (242) 
C#CC1(O)CCN(Cc2ccco2)CC1

>  <SuCOS_Score>  (242) 
0.6020911680938158

>  <Max_SuCOS_Score>  (242) 
0

>  <Cum_SuCOS_Score>  (242) 
0

>  <TransFSScore_50nM>  (242) 
0.00197

>  <TransFSScore_1uM>  (242) 
0.01023

>  <TransFSScore_10nM>  (242) 
0.0056709999999999998

>  <TransFSScore_200nM>  (242) 
0.058004

>  <TransFSScore>  (242) 
0.01896875

>  <FeatureSteinScore>  (242) 
0.60647575734602932

$$$$
C#CC1(O)CCN(Cc2cccs2)CC1
     RDKit          3D

 15 16  0  0  0  0  0  0  0  0999 V2000
    8.5419   -2.1735   27.0394 C   0  0  0  0  0  0  0  0  0  0  0  0
    8.6455   -3.3383   26.7402 C   0  0  0  0  0  0  0  0  0  0  0  0
    8.7702   -4.7797   26.3914 C   0  0  0  0  0  0  0  0  0  0  0  0
    8.7973   -5.3075   27.6463 O   0  0  0  0  0  0  0  0  0  0  0  0
   10.0592   -5.0434   25.6283 C   0  0  0  0  0  0  0  0  0  0  0  0
   10.1148   -4.0607   24.4619 C   0  0  0  0  0  0  0  0  0  0  0  0
    8.7843   -3.7624   23.8681 N   0  0  0  0  0  0  0  0  0  0  0  0
    8.7893   -3.1970   22.5154 C   0  0  0  0  0  0  0  0  0  0  0  0
    9.6144   -1.9600   22.3515 C   0  0  0  0  0  0  0  0  0  0  0  0
    9.1362   -0.6837   22.0774 C   0  0  0  0  0  0  0  0  0  0  0  0
   10.1523    0.2738   21.9746 C   0  0  0  0  0  0  0  0  0  0  0  0
   11.4273   -0.2423   22.1693 C   0  0  0  0  0  0  0  0  0  0  0  0
   11.2909   -1.8917   22.4690 S   0  0  0  0  0  0  0  0  0  0  0  0
    7.7964   -4.8546   24.0270 C   0  0  0  0  0  0  0  0  0  0  0  0
    7.5672   -5.2045   25.5251 C   0  0  0  0  0  0  0  0  0  0  0  0
  1  2  3  0
  2  3  1  0
  3  4  1  0
  3  5  1  0
  5  6  1  0
  6  7  1  0
  7  8  1  0
  7 14  1  0
  8  9  1  0
  9 10  2  0
 10 11  1  0
 11 12  2  0
 12 13  1  0
 13  9  1  0
 14 15  1  0
 15  3  1  0
M  END
>  <Hit>  (243) 
Mpro-x0387_0

>  <Receptor>  (243) 
Mpro-x1249_0

>  <SCORE>  (243) 
-10.3383

>  <SCORE.norm>  (243) 
-0.68921900000000003

>  <SCORE.heavy>  (243) 
15

>  <OrigSmiles>  (243) 
C#CC1(O)CCN(Cc2cccs2)CC1

>  <SuCOS_Score>  (243) 
0.42199700821564307

>  <Max_SuCOS_Score>  (243) 
0

>  <Cum_SuCOS_Score>  (243) 
0

>  <TransFSScore_50nM>  (243) 
0.0016069999999999999

>  <TransFSScore_1uM>  (243) 
0.022884000000000002

>  <TransFSScore_10nM>  (243) 
0.0071739999999999998

>  <TransFSScore_200nM>  (243) 
0.019674000000000001

>  <TransFSScore>  (243) 
0.012834749999999999

>  <FeatureSteinScore>  (243) 
0.37921390018116402

$$$$
C#CC1(O)CCN(Cc2ccn[nH]2)CC1
     RDKit          3D

 15 16  0  0  0  0  0  0  0  0999 V2000
    7.6277   -6.3425   27.5648 C   0  0  0  0  0  0  0  0  0  0  0  0
    8.1570   -5.9437   26.5575 C   0  0  0  0  0  0  0  0  0  0  0  0
    8.8072   -5.4540   25.3210 C   0  0  0  0  0  0  0  0  0  0  0  0
    9.5440   -6.5087   24.7528 O   0  0  0  0  0  0  0  0  0  0  0  0
    7.7046   -5.0612   24.3330 C   0  0  0  0  0  0  0  0  0  0  0  0
    8.2422   -4.2783   23.1337 C   0  0  0  0  0  0  0  0  0  0  0  0
    9.1710   -3.1809   23.5125 N   0  0  0  0  0  0  0  0  0  0  0  0
    9.1682   -1.9482   22.6992 C   0  0  0  0  0  0  0  0  0  0  0  0
   10.5023   -1.3022   22.5002 C   0  0  0  0  0  0  0  0  0  0  0  0
   11.2196   -0.5899   23.4450 C   0  0  0  0  0  0  0  0  0  0  0  0
   12.3927   -0.2451   22.7994 C   0  0  0  0  0  0  0  0  0  0  0  0
   12.3607   -0.7356   21.5462 N   0  0  0  0  0  0  0  0  0  0  0  0
   11.2198   -1.3772   21.3646 N   0  0  0  0  0  0  0  0  0  0  0  0
    9.3159   -2.9472   24.9589 C   0  0  0  0  0  0  0  0  0  0  0  0
    9.7418   -4.2556   25.6493 C   0  0  0  0  0  0  0  0  0  0  0  0
  1  2  3  0
  2  3  1  0
  3  4  1  0
  3  5  1  0
  5  6  1  0
  6  7  1  0
  7  8  1  0
  7 14  1  0
  8  9  1  0
  9 10  2  0
 10 11  1  0
 11 12  2  0
 12 13  1  0
 13  9  1  0
 14 15  1  0
 15  3  1  0
M  END
>  <Hit>  (244) 
Mpro-x0387_0

>  <Receptor>  (244) 
Mpro-x0874_0

>  <SCORE>  (244) 
-10.395099999999999

>  <SCORE.norm>  (244) 
-0.69300700000000004

>  <SCORE.heavy>  (244) 
15

>  <OrigSmiles>  (244) 
C#CC1(O)CCN(Cc2ccn[nH]2)CC1

>  <SuCOS_Score>  (244) 
0.37568009738723923

>  <Max_SuCOS_Score>  (244) 
0

>  <Cum_SuCOS_Score>  (244) 
0

>  <TransFSScore_50nM>  (244) 
0.0033110000000000001

>  <TransFSScore_1uM>  (244) 
0.031341000000000001

>  <TransFSScore_10nM>  (244) 
0.013245

>  <TransFSScore_200nM>  (244) 
0.031137999999999999

>  <TransFSScore>  (244) 
0.019758749999999999

>  <FeatureSteinScore>  (244) 
0.30604010230668194

$$$$
C#CC1(O)CCN(Cc2ccncc2)CC1
     RDKit          3D

 16 17  0  0  0  0  0  0  0  0999 V2000
    7.5369   -6.3043   27.9732 C   0  0  0  0  0  0  0  0  0  0  0  0
    8.0857   -5.9773   26.9504 C   0  0  0  0  0  0  0  0  0  0  0  0
    8.7572   -5.5770   25.6996 C   0  0  0  0  0  0  0  0  0  0  0  0
    9.4924   -6.6896   25.2565 O   0  0  0  0  0  0  0  0  0  0  0  0
    7.6749   -5.2390   24.6669 C   0  0  0  0  0  0  0  0  0  0  0  0
    8.2342   -4.5264   23.4339 C   0  0  0  0  0  0  0  0  0  0  0  0
    9.1943   -3.4400   23.7600 N   0  0  0  0  0  0  0  0  0  0  0  0
    9.2443   -2.2645   22.8663 C   0  0  0  0  0  0  0  0  0  0  0  0
   10.5174   -1.4667   22.9130 C   0  0  0  0  0  0  0  0  0  0  0  0
   10.7452   -0.5655   23.9631 C   0  0  0  0  0  0  0  0  0  0  0  0
   11.9203    0.1893   23.9795 C   0  0  0  0  0  0  0  0  0  0  0  0
   12.8353    0.0538   22.9813 N   0  0  0  0  0  0  0  0  0  0  0  0
   12.6349   -0.8085   21.9477 C   0  0  0  0  0  0  0  0  0  0  0  0
   11.4731   -1.5821   21.8926 C   0  0  0  0  0  0  0  0  0  0  0  0
    9.3133   -3.1100   25.1900 C   0  0  0  0  0  0  0  0  0  0  0  0
    9.6987   -4.3730   25.9815 C   0  0  0  0  0  0  0  0  0  0  0  0
  1  2  3  0
  2  3  1  0
  3  4  1  0
  3  5  1  0
  5  6  1  0
  6  7  1  0
  7  8  1  0
  7 15  1  0
  8  9  1  0
  9 10  2  0
 10 11  1  0
 11 12  2  0
 12 13  1  0
 13 14  2  0
 14  9  1  0
 15 16  1  0
 16  3  1  0
M  END
>  <Hit>  (245) 
Mpro-x0387_0

>  <Receptor>  (245) 
Mpro-x1249_0

>  <SCORE>  (245) 
-11.0397

>  <SCORE.norm>  (245) 
-0.68997799999999998

>  <SCORE.heavy>  (245) 
16

>  <OrigSmiles>  (245) 
C#CC1(O)CCN(Cc2ccncc2)CC1

>  <SuCOS_Score>  (245) 
0.49100025961687432

>  <Max_SuCOS_Score>  (245) 
0

>  <Cum_SuCOS_Score>  (245) 
0

>  <TransFSScore_50nM>  (245) 
0.029189

>  <TransFSScore_1uM>  (245) 
0.040300000000000002

>  <TransFSScore_10nM>  (245) 
0.010664999999999999

>  <TransFSScore_200nM>  (245) 
0.056959999999999997

>  <TransFSScore>  (245) 
0.034278499999999996

>  <FeatureSteinScore>  (245) 
0.55051859268499315

$$$$
C#CC1(O)CCN(Cc2ccncn2)CC1
     RDKit          3D

 16 17  0  0  0  0  0  0  0  0999 V2000
    7.5982   -6.4336   27.9635 C   0  0  0  0  0  0  0  0  0  0  0  0
    8.1252   -6.0603   26.9452 C   0  0  0  0  0  0  0  0  0  0  0  0
    8.7730   -5.6016   25.6954 C   0  0  0  0  0  0  0  0  0  0  0  0
    9.5537   -6.6530   25.1790 O   0  0  0  0  0  0  0  0  0  0  0  0
    7.6801   -5.2314   24.6823 C   0  0  0  0  0  0  0  0  0  0  0  0
    8.2391   -4.4831   23.4716 C   0  0  0  0  0  0  0  0  0  0  0  0
    9.1563   -3.3713   23.8375 N   0  0  0  0  0  0  0  0  0  0  0  0
    9.1581   -2.1580   22.9951 C   0  0  0  0  0  0  0  0  0  0  0  0
   10.4518   -1.3960   22.9603 C   0  0  0  0  0  0  0  0  0  0  0  0
   10.8679   -0.6704   24.0835 C   0  0  0  0  0  0  0  0  0  0  0  0
   12.0567    0.0525   24.0086 C   0  0  0  0  0  0  0  0  0  0  0  0
   12.7812    0.0485   22.8606 N   0  0  0  0  0  0  0  0  0  0  0  0
   12.3636   -0.6523   21.7745 C   0  0  0  0  0  0  0  0  0  0  0  0
   11.2062   -1.3650   21.8239 N   0  0  0  0  0  0  0  0  0  0  0  0
    9.2790   -3.1021   25.2798 C   0  0  0  0  0  0  0  0  0  0  0  0
    9.6962   -4.3933   26.0092 C   0  0  0  0  0  0  0  0  0  0  0  0
  1  2  3  0
  2  3  1  0
  3  4  1  0
  3  5  1  0
  5  6  1  0
  6  7  1  0
  7  8  1  0
  7 15  1  0
  8  9  1  0
  9 10  2  0
 10 11  1  0
 11 12  2  0
 12 13  1  0
 13 14  2  0
 14  9  1  0
 15 16  1  0
 16  3  1  0
M  END
>  <Hit>  (246) 
Mpro-x0387_0

>  <Receptor>  (246) 
Mpro-x0874_0

>  <SCORE>  (246) 
-11.543799999999999

>  <SCORE.norm>  (246) 
-0.72148999999999996

>  <SCORE.heavy>  (246) 
16

>  <OrigSmiles>  (246) 
C#CC1(O)CCN(Cc2ccncn2)CC1

>  <SuCOS_Score>  (246) 
0.45576556541391389

>  <Max_SuCOS_Score>  (246) 
0

>  <Cum_SuCOS_Score>  (246) 
0

>  <TransFSScore_50nM>  (246) 
0.046504999999999998

>  <TransFSScore_1uM>  (246) 
0.075314999999999993

>  <TransFSScore_10nM>  (246) 
0.126942

>  <TransFSScore_200nM>  (246) 
0.11327

>  <TransFSScore>  (246) 
0.090507999999999991

>  <FeatureSteinScore>  (246) 
0.4832351365641418

$$$$
C#CC1(O)CCN(Cc2ccno2)CC1
     RDKit          3D

 15 16  0  0  0  0  0  0  0  0999 V2000
    8.5447   -2.1917   27.0368 C   0  0  0  0  0  0  0  0  0  0  0  0
    8.6412   -3.3653   26.7722 C   0  0  0  0  0  0  0  0  0  0  0  0
    8.7487   -4.8148   26.4264 C   0  0  0  0  0  0  0  0  0  0  0  0
    8.6898   -5.3792   27.6700 O   0  0  0  0  0  0  0  0  0  0  0  0
   10.0502   -5.1173   25.6898 C   0  0  0  0  0  0  0  0  0  0  0  0
   10.1636   -4.1263   24.5356 C   0  0  0  0  0  0  0  0  0  0  0  0
    8.8595   -3.7910   23.9056 N   0  0  0  0  0  0  0  0  0  0  0  0
    8.9213   -3.2245   22.5558 C   0  0  0  0  0  0  0  0  0  0  0  0
    9.9712   -2.1787   22.3622 C   0  0  0  0  0  0  0  0  0  0  0  0
    9.7574   -0.8588   22.0288 C   0  0  0  0  0  0  0  0  0  0  0  0
   11.0266   -0.3226   21.9886 C   0  0  0  0  0  0  0  0  0  0  0  0
   11.9269   -1.2812   22.2828 N   0  0  0  0  0  0  0  0  0  0  0  0
   11.2608   -2.3777   22.5009 O   0  0  0  0  0  0  0  0  0  0  0  0
    7.8419   -4.8595   24.0301 C   0  0  0  0  0  0  0  0  0  0  0  0
    7.5672   -5.2127   25.5200 C   0  0  0  0  0  0  0  0  0  0  0  0
  1  2  3  0
  2  3  1  0
  3  4  1  0
  3  5  1  0
  5  6  1  0
  6  7  1  0
  7  8  1  0
  7 14  1  0
  8  9  1  0
  9 10  2  0
 10 11  1  0
 11 12  2  0
 12 13  1  0
 13  9  1  0
 14 15  1  0
 15  3  1  0
M  END
>  <Hit>  (247) 
Mpro-x0387_0

>  <Receptor>  (247) 
Mpro-x1249_0

>  <SCORE>  (247) 
-10.1524

>  <SCORE.norm>  (247) 
-0.67682600000000004

>  <SCORE.heavy>  (247) 
15

>  <OrigSmiles>  (247) 
C#CC1(O)CCN(Cc2ccno2)CC1

>  <SuCOS_Score>  (247) 
0.40960337172498329

>  <Max_SuCOS_Score>  (247) 
0

>  <Cum_SuCOS_Score>  (247) 
0

>  <TransFSScore_50nM>  (247) 
0.004084

>  <TransFSScore_1uM>  (247) 
0.028302000000000001

>  <TransFSScore_10nM>  (247) 
0.00363

>  <TransFSScore_200nM>  (247) 
0.071559999999999999

>  <TransFSScore>  (247) 
0.026894000000000001

>  <FeatureSteinScore>  (247) 
0.27704543644880181

$$$$
C#CC1(O)CCN(Cc2ccns2)CC1
     RDKit          3D

 15 16  0  0  0  0  0  0  0  0999 V2000
    9.0711   -4.8266   28.7225 C   0  0  0  0  0  0  0  0  0  0  0  0
    9.2771   -4.9642   27.5423 C   0  0  0  0  0  0  0  0  0  0  0  0
    9.5289   -5.1317   26.0996 C   0  0  0  0  0  0  0  0  0  0  0  0
    9.3789   -6.4978   25.7978 O   0  0  0  0  0  0  0  0  0  0  0  0
    8.4750   -4.3356   25.3251 C   0  0  0  0  0  0  0  0  0  0  0  0
    8.9902   -4.0379   23.9334 C   0  0  0  0  0  0  0  0  0  0  0  0
   10.0772   -3.0609   24.0422 N   0  0  0  0  0  0  0  0  0  0  0  0
   10.5900   -2.6651   22.7416 C   0  0  0  0  0  0  0  0  0  0  0  0
   11.6959   -1.6849   22.9651 C   0  0  0  0  0  0  0  0  0  0  0  0
   11.6690   -0.5547   23.7773 C   0  0  0  0  0  0  0  0  0  0  0  0
   12.8909    0.1490   23.7820 C   0  0  0  0  0  0  0  0  0  0  0  0
   13.8691   -0.3844   23.0095 N   0  0  0  0  0  0  0  0  0  0  0  0
   13.2296   -1.7446   22.3069 S   0  0  0  0  0  0  0  0  0  0  0  0
   11.1090   -3.3282   25.0693 C   0  0  0  0  0  0  0  0  0  0  0  0
   10.9801   -4.6922   25.7680 C   0  0  0  0  0  0  0  0  0  0  0  0
  1  2  3  0
  2  3  1  0
  3  4  1  0
  3  5  1  0
  5  6  1  0
  6  7  1  0
  7  8  1  0
  7 14  1  0
  8  9  1  0
  9 10  2  0
 10 11  1  0
 11 12  2  0
 12 13  1  0
 13  9  1  0
 14 15  1  0
 15  3  1  0
M  END
>  <Hit>  (248) 
Mpro-x0387_0

>  <Receptor>  (248) 
Mpro-x0387_0

>  <SCORE>  (248) 
-10.5732

>  <SCORE.norm>  (248) 
-0.70488200000000001

>  <SCORE.heavy>  (248) 
15

>  <OrigSmiles>  (248) 
C#CC1(O)CCN(Cc2ccns2)CC1

>  <SuCOS_Score>  (248) 
0.60048547489216453

>  <Max_SuCOS_Score>  (248) 
0

>  <Cum_SuCOS_Score>  (248) 
0

>  <TransFSScore_50nM>  (248) 
0.0032260000000000001

>  <TransFSScore_1uM>  (248) 
0.017049999999999999

>  <TransFSScore_10nM>  (248) 
0.0085869999999999991

>  <TransFSScore_200nM>  (248) 
0.033924000000000003

>  <TransFSScore>  (248) 
0.015696750000000002

>  <FeatureSteinScore>  (248) 
0.60454831560555156

$$$$
C#CC1(O)CCN(Cc2ccoc2)CC1
     RDKit          3D

 15 16  0  0  0  0  0  0  0  0999 V2000
    9.1618   -3.0149   27.9439 C   0  0  0  0  0  0  0  0  0  0  0  0
    9.1188   -4.0532   27.3298 C   0  0  0  0  0  0  0  0  0  0  0  0
    9.0761   -5.3243   26.5570 C   0  0  0  0  0  0  0  0  0  0  0  0
    8.7057   -6.1747   27.5539 O   0  0  0  0  0  0  0  0  0  0  0  0
   10.4476   -5.6620   25.9927 C   0  0  0  0  0  0  0  0  0  0  0  0
   10.9531   -4.4336   25.2411 C   0  0  0  0  0  0  0  0  0  0  0  0
    9.8788   -3.6714   24.5507 N   0  0  0  0  0  0  0  0  0  0  0  0
   10.3105   -2.7671   23.4805 C   0  0  0  0  0  0  0  0  0  0  0  0
   11.1389   -1.6049   23.9322 C   0  0  0  0  0  0  0  0  0  0  0  0
   11.0669   -0.9571   25.1481 C   0  0  0  0  0  0  0  0  0  0  0  0
   12.0153    0.0435   25.0881 C   0  0  0  0  0  0  0  0  0  0  0  0
   12.6243    0.0117   23.9233 O   0  0  0  0  0  0  0  0  0  0  0  0
   12.1224   -0.9665   23.2049 C   0  0  0  0  0  0  0  0  0  0  0  0
    8.7100   -4.4955   24.1647 C   0  0  0  0  0  0  0  0  0  0  0  0
    8.0662   -5.1881   25.3996 C   0  0  0  0  0  0  0  0  0  0  0  0
  1  2  3  0
  2  3  1  0
  3  4  1  0
  3  5  1  0
  5  6  1  0
  6  7  1  0
  7  8  1  0
  7 14  1  0
  8  9  1  0
  9 10  1  0
 10 11  2  0
 11 12  1  0
 12 13  1  0
 13  9  2  0
 14 15  1  0
 15  3  1  0
M  END
>  <Hit>  (249) 
Mpro-x0387_0

>  <Receptor>  (249) 
Mpro-x0387_0

>  <SCORE>  (249) 
-10.2925

>  <SCORE.norm>  (249) 
-0.686164

>  <SCORE.heavy>  (249) 
15

>  <OrigSmiles>  (249) 
C#CC1(O)CCN(Cc2ccoc2)CC1

>  <SuCOS_Score>  (249) 
0.52191968141296308

>  <Max_SuCOS_Score>  (249) 
0

>  <Cum_SuCOS_Score>  (249) 
0

>  <TransFSScore_50nM>  (249) 
0.0009859999999999999

>  <TransFSScore_1uM>  (249) 
0.029561

>  <TransFSScore_10nM>  (249) 
0.0028010000000000001

>  <TransFSScore_200nM>  (249) 
0.024628000000000001

>  <TransFSScore>  (249) 
0.014494

>  <FeatureSteinScore>  (249) 
0.24713812522443715

$$$$
C#CC1(O)CCN(Cc2ccon2)CC1
     RDKit          3D

 15 16  0  0  0  0  0  0  0  0999 V2000
    8.3901   -6.0125   22.8870 C   0  0  0  0  0  0  0  0  0  0  0  0
    8.8249   -5.7791   23.9886 C   0  0  0  0  0  0  0  0  0  0  0  0
    9.3757   -5.4790   25.3381 C   0  0  0  0  0  0  0  0  0  0  0  0
    9.2117   -6.6997   25.9184 O   0  0  0  0  0  0  0  0  0  0  0  0
    8.5578   -4.3987   26.0295 C   0  0  0  0  0  0  0  0  0  0  0  0
    8.4474   -3.2173   25.0694 C   0  0  0  0  0  0  0  0  0  0  0  0
    9.6627   -3.0072   24.2383 N   0  0  0  0  0  0  0  0  0  0  0  0
    9.8104   -1.6815   23.6298 C   0  0  0  0  0  0  0  0  0  0  0  0
   11.1386   -1.4285   22.9881 C   0  0  0  0  0  0  0  0  0  0  0  0
   12.2560   -0.8840   23.5898 C   0  0  0  0  0  0  0  0  0  0  0  0
   13.1960   -0.8458   22.5772 C   0  0  0  0  0  0  0  0  0  0  0  0
   12.6538   -1.3319   21.4827 O   0  0  0  0  0  0  0  0  0  0  0  0
   11.4232   -1.6882   21.7002 N   0  0  0  0  0  0  0  0  0  0  0  0
   10.9132   -3.4888   24.8694 C   0  0  0  0  0  0  0  0  0  0  0  0
   10.8373   -5.0060   25.2031 C   0  0  0  0  0  0  0  0  0  0  0  0
  1  2  3  0
  2  3  1  0
  3  4  1  0
  3  5  1  0
  5  6  1  0
  6  7  1  0
  7  8  1  0
  7 14  1  0
  8  9  1  0
  9 10  1  0
 10 11  2  0
 11 12  1  0
 12 13  1  0
 13  9  2  0
 14 15  1  0
 15  3  1  0
M  END
>  <Hit>  (250) 
Mpro-x0387_0

>  <Receptor>  (250) 
Mpro-x0387_0

>  <SCORE>  (250) 
-10.0036

>  <SCORE.norm>  (250) 
-0.666906

>  <SCORE.heavy>  (250) 
15

>  <OrigSmiles>  (250) 
C#CC1(O)CCN(Cc2ccon2)CC1

>  <SuCOS_Score>  (250) 
0.5328839298041228

>  <Max_SuCOS_Score>  (250) 
0

>  <Cum_SuCOS_Score>  (250) 
0

>  <TransFSScore_50nM>  (250) 
0.0051830000000000001

>  <TransFSScore_1uM>  (250) 
0.025332

>  <TransFSScore_10nM>  (250) 
0.014121

>  <TransFSScore_200nM>  (250) 
0.058222000000000003

>  <TransFSScore>  (250) 
0.025714500000000001

>  <FeatureSteinScore>  (250) 
0.49877022058959353

$$$$
C#CC1(O)CCN(Cc2ccsc2Cl)CC1
     RDKit          3D

 16 17  0  0  0  0  0  0  0  0999 V2000
    7.8957   -5.4899   21.9733 C   0  0  0  0  0  0  0  0  0  0  0  0
    8.1166   -4.8697   22.9850 C   0  0  0  0  0  0  0  0  0  0  0  0
    8.3852   -4.1198   24.2473 C   0  0  0  0  0  0  0  0  0  0  0  0
    7.6385   -4.8549   25.1192 O   0  0  0  0  0  0  0  0  0  0  0  0
    7.8576   -2.6970   24.1608 C   0  0  0  0  0  0  0  0  0  0  0  0
    8.4141   -2.0720   22.8841 C   0  0  0  0  0  0  0  0  0  0  0  0
    9.7964   -2.5167   22.5661 N   0  0  0  0  0  0  0  0  0  0  0  0
   10.5138   -1.7546   21.5356 C   0  0  0  0  0  0  0  0  0  0  0  0
   11.6865   -0.9738   22.0412 C   0  0  0  0  0  0  0  0  0  0  0  0
   13.0229   -1.1586   21.6214 C   0  0  0  0  0  0  0  0  0  0  0  0
   13.9244   -0.3609   22.3216 C   0  0  0  0  0  0  0  0  0  0  0  0
   13.0611    0.5751   23.4160 S   0  0  0  0  0  0  0  0  0  0  0  0
   11.5475   -0.0041   23.0245 C   0  0  0  0  0  0  0  0  0  0  0  0
   10.0601    0.5149   23.7988 Cl  0  0  0  0  0  0  0  0  0  0  0  0
   10.5974   -2.9020   23.7489 C   0  0  0  0  0  0  0  0  0  0  0  0
    9.9086   -4.0657   24.5281 C   0  0  0  0  0  0  0  0  0  0  0  0
  1  2  3  0
  2  3  1  0
  3  4  1  0
  3  5  1  0
  5  6  1  0
  6  7  1  0
  7  8  1  0
  7 15  1  0
  8  9  1  0
  9 10  1  0
 10 11  2  0
 11 12  1  0
 12 13  1  0
 13 14  1  0
 13  9  2  0
 15 16  1  0
 16  3  1  0
M  END
>  <Hit>  (251) 
Mpro-x0387_0

>  <Receptor>  (251) 
Mpro-x0874_0

>  <SCORE>  (251) 
-12.498200000000001

>  <SCORE.norm>  (251) 
-0.78113600000000005

>  <SCORE.heavy>  (251) 
16

>  <OrigSmiles>  (251) 
C#CC1(O)CCN(Cc2ccsc2Cl)CC1

>  <SuCOS_Score>  (251) 
0.39965316204400708

>  <Max_SuCOS_Score>  (251) 
0

>  <Cum_SuCOS_Score>  (251) 
0

>  <TransFSScore_50nM>  (251) 
0.001165

>  <TransFSScore_1uM>  (251) 
0.026665000000000001

>  <TransFSScore_10nM>  (251) 
0.0086719999999999992

>  <TransFSScore_200nM>  (251) 
0.021323000000000002

>  <TransFSScore>  (251) 
0.01445625

>  <FeatureSteinScore>  (251) 
0.43083938336596694

$$$$
C#CC1(O)CCN(Cc2cn[nH]c2)CC1
     RDKit          3D

 15 16  0  0  0  0  0  0  0  0999 V2000
    8.4604   -2.9506   27.6234 C   0  0  0  0  0  0  0  0  0  0  0  0
    8.5754   -4.0360   27.1079 C   0  0  0  0  0  0  0  0  0  0  0  0
    8.7125   -5.3655   26.4536 C   0  0  0  0  0  0  0  0  0  0  0  0
    8.4131   -6.1644   27.5149 O   0  0  0  0  0  0  0  0  0  0  0  0
   10.1332   -5.5803   25.9545 C   0  0  0  0  0  0  0  0  0  0  0  0
   10.5126   -4.3698   25.1061 C   0  0  0  0  0  0  0  0  0  0  0  0
    9.3787   -3.8090   24.3241 N   0  0  0  0  0  0  0  0  0  0  0  0
    9.7351   -2.9560   23.1862 C   0  0  0  0  0  0  0  0  0  0  0  0
   10.5344   -1.7401   23.5351 C   0  0  0  0  0  0  0  0  0  0  0  0
   11.6824   -1.2902   22.9129 C   0  0  0  0  0  0  0  0  0  0  0  0
   12.0934   -0.1572   23.5153 N   0  0  0  0  0  0  0  0  0  0  0  0
   11.2422    0.1149   24.4925 N   0  0  0  0  0  0  0  0  0  0  0  0
   10.2818   -0.8248   24.5349 C   0  0  0  0  0  0  0  0  0  0  0  0
    8.3316   -4.8013   23.9878 C   0  0  0  0  0  0  0  0  0  0  0  0
    7.7338   -5.4568   25.2653 C   0  0  0  0  0  0  0  0  0  0  0  0
  1  2  3  0
  2  3  1  0
  3  4  1  0
  3  5  1  0
  5  6  1  0
  6  7  1  0
  7  8  1  0
  7 14  1  0
  8  9  1  0
  9 10  1  0
 10 11  2  0
 11 12  1  0
 12 13  1  0
 13  9  2  0
 14 15  1  0
 15  3  1  0
M  END
>  <Hit>  (252) 
Mpro-x0387_0

>  <Receptor>  (252) 
Mpro-x0305_0

>  <SCORE>  (252) 
-11.016299999999999

>  <SCORE.norm>  (252) 
-0.73442300000000005

>  <SCORE.heavy>  (252) 
15

>  <OrigSmiles>  (252) 
C#CC1(O)CCN(Cc2cn[nH]c2)CC1

>  <SuCOS_Score>  (252) 
0.47358224571774438

>  <Max_SuCOS_Score>  (252) 
0

>  <Cum_SuCOS_Score>  (252) 
0

>  <TransFSScore_50nM>  (252) 
0.002261

>  <TransFSScore_1uM>  (252) 
0.114727

>  <TransFSScore_10nM>  (252) 
0.048901

>  <TransFSScore_200nM>  (252) 
0.057960999999999999

>  <TransFSScore>  (252) 
0.055962499999999998

>  <FeatureSteinScore>  (252) 
0.30234624375088481

$$$$
C#CC1(O)CCN(Cc2cnccn2)CC1
     RDKit          3D

 16 17  0  0  0  0  0  0  0  0999 V2000
    7.5405   -6.3233   27.4452 C   0  0  0  0  0  0  0  0  0  0  0  0
    8.1162   -5.9233   26.4640 C   0  0  0  0  0  0  0  0  0  0  0  0
    8.8232   -5.4324   25.2596 C   0  0  0  0  0  0  0  0  0  0  0  0
    9.5744   -6.4904   24.7172 O   0  0  0  0  0  0  0  0  0  0  0  0
    7.7674   -5.0241   24.2277 C   0  0  0  0  0  0  0  0  0  0  0  0
    8.3619   -4.2379   23.0575 C   0  0  0  0  0  0  0  0  0  0  0  0
    9.2844   -3.1522   23.4825 N   0  0  0  0  0  0  0  0  0  0  0  0
    9.3267   -1.9130   22.6798 C   0  0  0  0  0  0  0  0  0  0  0  0
   10.6588   -1.2221   22.6256 C   0  0  0  0  0  0  0  0  0  0  0  0
   11.1827   -0.5803   23.7584 C   0  0  0  0  0  0  0  0  0  0  0  0
   12.4038    0.0108   23.6888 N   0  0  0  0  0  0  0  0  0  0  0  0
   13.1315   -0.0104   22.5424 C   0  0  0  0  0  0  0  0  0  0  0  0
   12.6191   -0.6545   21.4153 C   0  0  0  0  0  0  0  0  0  0  0  0
   11.3975   -1.2490   21.4788 N   0  0  0  0  0  0  0  0  0  0  0  0
    9.3691   -2.9287   24.9353 C   0  0  0  0  0  0  0  0  0  0  0  0
    9.7533   -4.2447   25.6350 C   0  0  0  0  0  0  0  0  0  0  0  0
  1  2  3  0
  2  3  1  0
  3  4  1  0
  3  5  1  0
  5  6  1  0
  6  7  1  0
  7  8  1  0
  7 15  1  0
  8  9  1  0
  9 10  2  0
 10 11  1  0
 11 12  2  0
 12 13  1  0
 13 14  2  0
 14  9  1  0
 15 16  1  0
 16  3  1  0
M  END
>  <Hit>  (253) 
Mpro-x0387_0

>  <Receptor>  (253) 
Mpro-x0874_0

>  <SCORE>  (253) 
-11.643599999999999

>  <SCORE.norm>  (253) 
-0.72772300000000001

>  <SCORE.heavy>  (253) 
16

>  <OrigSmiles>  (253) 
C#CC1(O)CCN(Cc2cnccn2)CC1

>  <SuCOS_Score>  (253) 
0.42847872835852702

>  <Max_SuCOS_Score>  (253) 
0

>  <Cum_SuCOS_Score>  (253) 
0

>  <TransFSScore_50nM>  (253) 
0.028466999999999999

>  <TransFSScore_1uM>  (253) 
0.043258999999999999

>  <TransFSScore_10nM>  (253) 
0.147977

>  <TransFSScore_200nM>  (253) 
0.38193500000000002

>  <TransFSScore>  (253) 
0.1504095

>  <FeatureSteinScore>  (253) 
0.44439209819583997

$$$$
C#CC1(O)CCN(Cc2cncs2)CC1
     RDKit          3D

 15 16  0  0  0  0  0  0  0  0999 V2000
    7.7287   -6.3883   28.3362 C   0  0  0  0  0  0  0  0  0  0  0  0
    8.2514   -6.0726   27.2964 C   0  0  0  0  0  0  0  0  0  0  0  0
    8.8930   -5.6853   26.0199 C   0  0  0  0  0  0  0  0  0  0  0  0
    9.5916   -6.7959   25.5131 O   0  0  0  0  0  0  0  0  0  0  0  0
    7.7845   -5.3295   25.0246 C   0  0  0  0  0  0  0  0  0  0  0  0
    8.3223   -4.6443   23.7671 C   0  0  0  0  0  0  0  0  0  0  0  0
    9.2858   -3.5497   24.0566 N   0  0  0  0  0  0  0  0  0  0  0  0
    9.3016   -2.3745   23.1619 C   0  0  0  0  0  0  0  0  0  0  0  0
   10.3915   -1.3834   23.4145 C   0  0  0  0  0  0  0  0  0  0  0  0
   10.3149   -0.2684   24.2418 C   0  0  0  0  0  0  0  0  0  0  0  0
   11.4687    0.4450   24.3234 N   0  0  0  0  0  0  0  0  0  0  0  0
   12.4685   -0.0806   23.5819 C   0  0  0  0  0  0  0  0  0  0  0  0
   11.9518   -1.4708   22.7870 S   0  0  0  0  0  0  0  0  0  0  0  0
    9.4618   -3.2235   25.4814 C   0  0  0  0  0  0  0  0  0  0  0  0
    9.8646   -4.4940   26.2521 C   0  0  0  0  0  0  0  0  0  0  0  0
  1  2  3  0
  2  3  1  0
  3  4  1  0
  3  5  1  0
  5  6  1  0
  6  7  1  0
  7  8  1  0
  7 14  1  0
  8  9  1  0
  9 10  2  0
 10 11  1  0
 11 12  2  0
 12 13  1  0
 13  9  1  0
 14 15  1  0
 15  3  1  0
M  END
>  <Hit>  (254) 
Mpro-x0387_0

>  <Receptor>  (254) 
Mpro-x0305_0

>  <SCORE>  (254) 
-10.697900000000001

>  <SCORE.norm>  (254) 
-0.71319600000000005

>  <SCORE.heavy>  (254) 
15

>  <OrigSmiles>  (254) 
C#CC1(O)CCN(Cc2cncs2)CC1

>  <SuCOS_Score>  (254) 
0.48872400232782653

>  <Max_SuCOS_Score>  (254) 
0

>  <Cum_SuCOS_Score>  (254) 
0

>  <TransFSScore_50nM>  (254) 
0.010425

>  <TransFSScore_1uM>  (254) 
0.034374000000000002

>  <TransFSScore_10nM>  (254) 
0.111898

>  <TransFSScore_200nM>  (254) 
0.093938999999999995

>  <TransFSScore>  (254) 
0.062658999999999992

>  <FeatureSteinScore>  (254) 
0.48738227414186586

$$$$
C#CC1(O)CCN(Cc2cnns2)CC1
     RDKit          3D

 15 16  0  0  0  0  0  0  0  0999 V2000
   10.5700   -5.2141   25.1170 C   0  0  0  0  0  0  0  0  0  0  0  0
    9.6896   -4.3931   25.2062 C   0  0  0  0  0  0  0  0  0  0  0  0
    8.5984   -3.3893   25.3345 C   0  0  0  0  0  0  0  0  0  0  0  0
    7.9663   -3.8914   26.4311 O   0  0  0  0  0  0  0  0  0  0  0  0
    7.7066   -3.3971   24.1023 C   0  0  0  0  0  0  0  0  0  0  0  0
    8.6086   -3.2599   22.8788 C   0  0  0  0  0  0  0  0  0  0  0  0
    9.7928   -2.3891   23.1042 N   0  0  0  0  0  0  0  0  0  0  0  0
   10.4474   -1.8620   21.9031 C   0  0  0  0  0  0  0  0  0  0  0  0
   11.7869   -1.2408   22.1359 C   0  0  0  0  0  0  0  0  0  0  0  0
   13.0264   -1.7208   21.7228 C   0  0  0  0  0  0  0  0  0  0  0  0
   14.0883   -0.9376   22.0814 N   0  0  0  0  0  0  0  0  0  0  0  0
   13.7680    0.1559   22.7694 N   0  0  0  0  0  0  0  0  0  0  0  0
   12.1186    0.1761   22.9522 S   0  0  0  0  0  0  0  0  0  0  0  0
    9.5886   -1.3535   24.1436 C   0  0  0  0  0  0  0  0  0  0  0  0
    9.2107   -1.9854   25.5136 C   0  0  0  0  0  0  0  0  0  0  0  0
  1  2  3  0
  2  3  1  0
  3  4  1  0
  3  5  1  0
  5  6  1  0
  6  7  1  0
  7  8  1  0
  7 14  1  0
  8  9  1  0
  9 10  2  0
 10 11  1  0
 11 12  2  0
 12 13  1  0
 13  9  1  0
 14 15  1  0
 15  3  1  0
M  END
>  <Hit>  (255) 
Mpro-x0387_0

>  <Receptor>  (255) 
Mpro-x0874_0

>  <SCORE>  (255) 
-11.4655

>  <SCORE.norm>  (255) 
-0.76436899999999997

>  <SCORE.heavy>  (255) 
15

>  <OrigSmiles>  (255) 
C#CC1(O)CCN(Cc2cnns2)CC1

>  <SuCOS_Score>  (255) 
0.4133632428809742

>  <Max_SuCOS_Score>  (255) 
0

>  <Cum_SuCOS_Score>  (255) 
0

>  <TransFSScore_50nM>  (255) 
0.0011950000000000001

>  <TransFSScore_1uM>  (255) 
0.031330999999999998

>  <TransFSScore_10nM>  (255) 
0.17208699999999999

>  <TransFSScore_200nM>  (255) 
0.13998099999999999

>  <TransFSScore>  (255) 
0.086148499999999989

>  <FeatureSteinScore>  (255) 
0.56708093453227759

$$$$
C#CC1(O)CCN(Cc2cnoc2)CC1
     RDKit          3D

 15 16  0  0  0  0  0  0  0  0999 V2000
    8.4429   -5.7077   27.7185 C   0  0  0  0  0  0  0  0  0  0  0  0
    8.9046   -5.4051   26.6464 C   0  0  0  0  0  0  0  0  0  0  0  0
    9.4708   -5.0334   25.3298 C   0  0  0  0  0  0  0  0  0  0  0  0
    9.7751   -6.2104   24.6201 O   0  0  0  0  0  0  0  0  0  0  0  0
    8.4208   -4.2258   24.5534 C   0  0  0  0  0  0  0  0  0  0  0  0
    9.0058   -3.5588   23.3082 C   0  0  0  0  0  0  0  0  0  0  0  0
   10.2800   -2.8382   23.5689 N   0  0  0  0  0  0  0  0  0  0  0  0
   10.5526   -1.5991   22.8128 C   0  0  0  0  0  0  0  0  0  0  0  0
   11.9754   -1.1390   22.8131 C   0  0  0  0  0  0  0  0  0  0  0  0
   13.0310   -1.6875   22.1189 C   0  0  0  0  0  0  0  0  0  0  0  0
   14.1486   -0.9999   22.4211 N   0  0  0  0  0  0  0  0  0  0  0  0
   13.8118   -0.0676   23.2670 O   0  0  0  0  0  0  0  0  0  0  0  0
   12.5275   -0.1063   23.5384 C   0  0  0  0  0  0  0  0  0  0  0  0
   10.7010   -2.7883   24.9790 C   0  0  0  0  0  0  0  0  0  0  0  0
   10.7760   -4.2198   25.5435 C   0  0  0  0  0  0  0  0  0  0  0  0
  1  2  3  0
  2  3  1  0
  3  4  1  0
  3  5  1  0
  5  6  1  0
  6  7  1  0
  7  8  1  0
  7 14  1  0
  8  9  1  0
  9 10  1  0
 10 11  2  0
 11 12  1  0
 12 13  1  0
 13  9  2  0
 14 15  1  0
 15  3  1  0
M  END
>  <Hit>  (256) 
Mpro-x0387_0

>  <Receptor>  (256) 
Mpro-x0387_0

>  <SCORE>  (256) 
-10.206899999999999

>  <SCORE.norm>  (256) 
-0.68046300000000004

>  <SCORE.heavy>  (256) 
15

>  <OrigSmiles>  (256) 
C#CC1(O)CCN(Cc2cnoc2)CC1

>  <SuCOS_Score>  (256) 
0.49422604642552376

>  <Max_SuCOS_Score>  (256) 
0

>  <Cum_SuCOS_Score>  (256) 
0

>  <TransFSScore_50nM>  (256) 
0.0019059999999999999

>  <TransFSScore_1uM>  (256) 
0.030019000000000001

>  <TransFSScore_10nM>  (256) 
0.0039940000000000002

>  <TransFSScore_200nM>  (256) 
0.041680000000000002

>  <TransFSScore>  (256) 
0.01939975

>  <FeatureSteinScore>  (256) 
0.48915284848293772

$$$$
C#CC1(O)CCN(Cc2cnsn2)CC1
     RDKit          3D

 15 16  0  0  0  0  0  0  0  0999 V2000
    7.5753   -6.3728   27.9020 C   0  0  0  0  0  0  0  0  0  0  0  0
    8.1137   -6.0047   26.8877 C   0  0  0  0  0  0  0  0  0  0  0  0
    8.7744   -5.5521   25.6425 C   0  0  0  0  0  0  0  0  0  0  0  0
    9.5667   -6.6033   25.1436 O   0  0  0  0  0  0  0  0  0  0  0  0
    7.6921   -5.1953   24.6133 C   0  0  0  0  0  0  0  0  0  0  0  0
    8.2625   -4.4539   23.4038 C   0  0  0  0  0  0  0  0  0  0  0  0
    9.1681   -3.3337   23.7724 N   0  0  0  0  0  0  0  0  0  0  0  0
    9.1736   -2.1274   22.9202 C   0  0  0  0  0  0  0  0  0  0  0  0
   10.5033   -1.4595   22.7543 C   0  0  0  0  0  0  0  0  0  0  0  0
   11.1471   -0.7579   23.8121 C   0  0  0  0  0  0  0  0  0  0  0  0
   12.3352   -0.1666   23.5107 N   0  0  0  0  0  0  0  0  0  0  0  0
   12.5031   -0.5600   21.9139 S   0  0  0  0  0  0  0  0  0  0  0  0
   11.1577   -1.4423   21.5668 N   0  0  0  0  0  0  0  0  0  0  0  0
    9.2722   -3.0530   25.2140 C   0  0  0  0  0  0  0  0  0  0  0  0
    9.6874   -4.3365   25.9583 C   0  0  0  0  0  0  0  0  0  0  0  0
  1  2  3  0
  2  3  1  0
  3  4  1  0
  3  5  1  0
  5  6  1  0
  6  7  1  0
  7  8  1  0
  7 14  1  0
  8  9  1  0
  9 10  1  0
 10 11  2  0
 11 12  1  0
 12 13  1  0
 13  9  2  0
 14 15  1  0
 15  3  1  0
M  END
>  <Hit>  (257) 
Mpro-x0387_0

>  <Receptor>  (257) 
Mpro-x0874_0

>  <SCORE>  (257) 
-11.6584

>  <SCORE.norm>  (257) 
-0.777227

>  <SCORE.heavy>  (257) 
15

>  <OrigSmiles>  (257) 
C#CC1(O)CCN(Cc2cnsn2)CC1

>  <SuCOS_Score>  (257) 
0.43006679427664224

>  <Max_SuCOS_Score>  (257) 
0

>  <Cum_SuCOS_Score>  (257) 
0

>  <TransFSScore_50nM>  (257) 
0.014318000000000001

>  <TransFSScore_1uM>  (257) 
0.0093589999999999993

>  <TransFSScore_10nM>  (257) 
0.079281000000000004

>  <TransFSScore_200nM>  (257) 
0.040658

>  <TransFSScore>  (257) 
0.035904000000000005

>  <FeatureSteinScore>  (257) 
0.46635079503176724

$$$$
C#CC1(O)CCN(Cc2csc(C)c2)CC1
     RDKit          3D

 16 17  0  0  0  0  0  0  0  0999 V2000
    8.6042   -5.1817   28.7287 C   0  0  0  0  0  0  0  0  0  0  0  0
    8.9114   -5.2862   27.5674 C   0  0  0  0  0  0  0  0  0  0  0  0
    9.2885   -5.4142   26.1413 C   0  0  0  0  0  0  0  0  0  0  0  0
    9.3883   -6.7757   25.7985 O   0  0  0  0  0  0  0  0  0  0  0  0
    8.1997   -4.7874   25.2705 C   0  0  0  0  0  0  0  0  0  0  0  0
    8.7926   -4.4336   23.9233 C   0  0  0  0  0  0  0  0  0  0  0  0
    9.6855   -3.2824   24.1078 N   0  0  0  0  0  0  0  0  0  0  0  0
   10.1906   -2.8147   22.8131 C   0  0  0  0  0  0  0  0  0  0  0  0
   10.6556   -1.3898   22.9669 C   0  0  0  0  0  0  0  0  0  0  0  0
   11.8800   -1.0767   23.5632 C   0  0  0  0  0  0  0  0  0  0  0  0
   12.0236    0.5842   23.6491 S   0  0  0  0  0  0  0  0  0  0  0  0
   10.5405    0.9351   22.9483 C   0  0  0  0  0  0  0  0  0  0  0  0
   10.0330    2.3062   22.6518 C   0  0  0  0  0  0  0  0  0  0  0  0
    9.8955   -0.2559   22.6248 C   0  0  0  0  0  0  0  0  0  0  0  0
   10.7441   -3.4571   25.1321 C   0  0  0  0  0  0  0  0  0  0  0  0
   10.6885   -4.7825   25.9144 C   0  0  0  0  0  0  0  0  0  0  0  0
  1  2  3  0
  2  3  1  0
  3  4  1  0
  3  5  1  0
  5  6  1  0
  6  7  1  0
  7  8  1  0
  7 15  1  0
  8  9  1  0
  9 10  2  0
 10 11  1  0
 11 12  1  0
 12 13  1  0
 12 14  2  0
 14  9  1  0
 15 16  1  0
 16  3  1  0
M  END
>  <Hit>  (258) 
Mpro-x0387_0

>  <Receptor>  (258) 
Mpro-x0387_0

>  <SCORE>  (258) 
-9.8441200000000002

>  <SCORE.norm>  (258) 
-0.61525700000000005

>  <SCORE.heavy>  (258) 
16

>  <OrigSmiles>  (258) 
C#CC1(O)CCN(Cc2csc(C)c2)CC1

>  <SuCOS_Score>  (258) 
0.51621299514801022

>  <Max_SuCOS_Score>  (258) 
0

>  <Cum_SuCOS_Score>  (258) 
0

>  <TransFSScore_50nM>  (258) 
0.001475

>  <TransFSScore_1uM>  (258) 
0.0061069999999999996

>  <TransFSScore_10nM>  (258) 
0.0077260000000000002

>  <TransFSScore_200nM>  (258) 
0.0030560000000000001

>  <TransFSScore>  (258) 
0.0045909999999999996

>  <FeatureSteinScore>  (258) 
0.58844094888174547

$$$$
C#CC1(O)CCN(Cc2cscc2C)CC1
     RDKit          3D

 16 17  0  0  0  0  0  0  0  0999 V2000
    8.1347   -4.6751   27.5592 C   0  0  0  0  0  0  0  0  0  0  0  0
    8.7853   -5.2141   26.6976 C   0  0  0  0  0  0  0  0  0  0  0  0
    9.5875   -5.8899   25.6264 C   0  0  0  0  0  0  0  0  0  0  0  0
    9.6427   -7.1825   26.0752 O   0  0  0  0  0  0  0  0  0  0  0  0
   10.9795   -5.3022   25.4394 C   0  0  0  0  0  0  0  0  0  0  0  0
   10.7923   -3.8160   25.4442 C   0  0  0  0  0  0  0  0  0  0  0  0
    9.9128   -3.3735   24.3360 N   0  0  0  0  0  0  0  0  0  0  0  0
    9.5042   -1.9873   24.5901 C   0  0  0  0  0  0  0  0  0  0  0  0
   10.6573   -1.0707   24.2752 C   0  0  0  0  0  0  0  0  0  0  0  0
   11.3754   -0.4534   25.2990 C   0  0  0  0  0  0  0  0  0  0  0  0
   12.5035    0.5651   24.6156 S   0  0  0  0  0  0  0  0  0  0  0  0
   12.1100    0.2617   23.0149 C   0  0  0  0  0  0  0  0  0  0  0  0
   11.0595   -0.6547   22.9836 C   0  0  0  0  0  0  0  0  0  0  0  0
   10.4431   -1.1393   21.7065 C   0  0  0  0  0  0  0  0  0  0  0  0
    8.7358   -4.2073   23.9635 C   0  0  0  0  0  0  0  0  0  0  0  0
    8.8312   -5.7063   24.3246 C   0  0  0  0  0  0  0  0  0  0  0  0
  1  2  3  0
  2  3  1  0
  3  4  1  0
  3  5  1  0
  5  6  1  0
  6  7  1  0
  7  8  1  0
  7 15  1  0
  8  9  1  0
  9 10  2  0
 10 11  1  0
 11 12  1  0
 12 13  2  0
 13 14  1  0
 13  9  1  0
 15 16  1  0
 16  3  1  0
M  END
>  <Hit>  (259) 
Mpro-x0387_0

>  <Receptor>  (259) 
Mpro-x0387_0

>  <SCORE>  (259) 
-10.2403

>  <SCORE.norm>  (259) 
-0.64002099999999995

>  <SCORE.heavy>  (259) 
16

>  <OrigSmiles>  (259) 
C#CC1(O)CCN(Cc2cscc2C)CC1

>  <SuCOS_Score>  (259) 
0.5735332688910264

>  <Max_SuCOS_Score>  (259) 
0

>  <Cum_SuCOS_Score>  (259) 
0

>  <TransFSScore_50nM>  (259) 
0.0024589999999999998

>  <TransFSScore_1uM>  (259) 
0.012267999999999999

>  <TransFSScore_10nM>  (259) 
0.019601

>  <TransFSScore_200nM>  (259) 
0.0067689999999999998

>  <TransFSScore>  (259) 
0.010274249999999999

>  <FeatureSteinScore>  (259) 
0.52163659032585152

$$$$
C#CC1(O)CCN(Cc2cscn2)CC1
     RDKit          3D

 15 16  0  0  0  0  0  0  0  0999 V2000
    8.8030   -5.0421   28.8258 C   0  0  0  0  0  0  0  0  0  0  0  0
    9.0434   -5.1706   27.6512 C   0  0  0  0  0  0  0  0  0  0  0  0
    9.3383   -5.3290   26.2101 C   0  0  0  0  0  0  0  0  0  0  0  0
    9.1999   -6.6815   25.8500 O   0  0  0  0  0  0  0  0  0  0  0  0
    8.3000   -4.5476   25.4087 C   0  0  0  0  0  0  0  0  0  0  0  0
    8.8600   -4.2357   24.0355 C   0  0  0  0  0  0  0  0  0  0  0  0
    9.9061   -3.2115   24.1834 N   0  0  0  0  0  0  0  0  0  0  0  0
   10.4556   -2.8427   22.8785 C   0  0  0  0  0  0  0  0  0  0  0  0
   11.5128   -1.7870   23.0639 C   0  0  0  0  0  0  0  0  0  0  0  0
   11.3460   -0.6786   23.8918 C   0  0  0  0  0  0  0  0  0  0  0  0
   12.7489    0.2444   23.7940 S   0  0  0  0  0  0  0  0  0  0  0  0
   13.5115   -0.7911   22.7128 C   0  0  0  0  0  0  0  0  0  0  0  0
   12.7118   -1.8381   22.4195 N   0  0  0  0  0  0  0  0  0  0  0  0
   10.9535   -3.5280   25.1923 C   0  0  0  0  0  0  0  0  0  0  0  0
   10.7928   -4.8843   25.9013 C   0  0  0  0  0  0  0  0  0  0  0  0
  1  2  3  0
  2  3  1  0
  3  4  1  0
  3  5  1  0
  5  6  1  0
  6  7  1  0
  7  8  1  0
  7 14  1  0
  8  9  1  0
  9 10  2  0
 10 11  1  0
 11 12  1  0
 12 13  2  0
 13  9  1  0
 14 15  1  0
 15  3  1  0
M  END
>  <Hit>  (260) 
Mpro-x0387_0

>  <Receptor>  (260) 
Mpro-x0387_0

>  <SCORE>  (260) 
-11.934699999999999

>  <SCORE.norm>  (260) 
-0.79564599999999996

>  <SCORE.heavy>  (260) 
15

>  <OrigSmiles>  (260) 
C#CC1(O)CCN(Cc2cscn2)CC1

>  <SuCOS_Score>  (260) 
0.60075240776678829

>  <Max_SuCOS_Score>  (260) 
0

>  <Cum_SuCOS_Score>  (260) 
0

>  <TransFSScore_50nM>  (260) 
0.0061250000000000002

>  <TransFSScore_1uM>  (260) 
0.050852000000000001

>  <TransFSScore_10nM>  (260) 
0.0065230000000000002

>  <TransFSScore_200nM>  (260) 
0.034168999999999998

>  <TransFSScore>  (260) 
0.024417250000000001

>  <FeatureSteinScore>  (260) 
0.51150056785219988

$$$$
C#CC1(O)CCN(Cc2csnn2)CC1
     RDKit          3D

 15 16  0  0  0  0  0  0  0  0999 V2000
    7.7173   -6.2819   27.8242 C   0  0  0  0  0  0  0  0  0  0  0  0
    8.2292   -5.9390   26.7876 C   0  0  0  0  0  0  0  0  0  0  0  0
    8.8571   -5.5180   25.5147 C   0  0  0  0  0  0  0  0  0  0  0  0
    9.6608   -6.5707   25.0377 O   0  0  0  0  0  0  0  0  0  0  0  0
    7.7487   -5.2188   24.4951 C   0  0  0  0  0  0  0  0  0  0  0  0
    8.2803   -4.5081   23.2499 C   0  0  0  0  0  0  0  0  0  0  0  0
    9.1707   -3.3587   23.5615 N   0  0  0  0  0  0  0  0  0  0  0  0
    9.1342   -2.1808   22.6710 C   0  0  0  0  0  0  0  0  0  0  0  0
   10.3805   -1.3510   22.6454 C   0  0  0  0  0  0  0  0  0  0  0  0
   10.8309   -0.6118   23.7450 C   0  0  0  0  0  0  0  0  0  0  0  0
   12.2626    0.0838   23.2317 S   0  0  0  0  0  0  0  0  0  0  0  0
   12.2753   -0.5442   21.6993 N   0  0  0  0  0  0  0  0  0  0  0  0
   11.1932   -1.2974   21.5448 N   0  0  0  0  0  0  0  0  0  0  0  0
    9.2967   -3.0266   24.9905 C   0  0  0  0  0  0  0  0  0  0  0  0
    9.7516   -4.2749   25.7700 C   0  0  0  0  0  0  0  0  0  0  0  0
  1  2  3  0
  2  3  1  0
  3  4  1  0
  3  5  1  0
  5  6  1  0
  6  7  1  0
  7  8  1  0
  7 14  1  0
  8  9  1  0
  9 10  2  0
 10 11  1  0
 11 12  1  0
 12 13  2  0
 13  9  1  0
 14 15  1  0
 15  3  1  0
M  END
>  <Hit>  (261) 
Mpro-x0387_0

>  <Receptor>  (261) 
Mpro-x1249_0

>  <SCORE>  (261) 
-11.5494

>  <SCORE.norm>  (261) 
-0.76996299999999995

>  <SCORE.heavy>  (261) 
15

>  <OrigSmiles>  (261) 
C#CC1(O)CCN(Cc2csnn2)CC1

>  <SuCOS_Score>  (261) 
0.38842532235614097

>  <Max_SuCOS_Score>  (261) 
0

>  <Cum_SuCOS_Score>  (261) 
0

>  <TransFSScore_50nM>  (261) 
0.002062

>  <TransFSScore_1uM>  (261) 
0.010271000000000001

>  <TransFSScore_10nM>  (261) 
0.083874000000000004

>  <TransFSScore_200nM>  (261) 
0.019182999999999999

>  <TransFSScore>  (261) 
0.028847499999999998

>  <FeatureSteinScore>  (261) 
0.386387442492091

$$$$
C#CC1(O)CCN(Cc2nc[nH]n2)CC1
     RDKit          3D

 15 16  0  0  0  0  0  0  0  0999 V2000
    8.1969   -2.2565   26.8203 C   0  0  0  0  0  0  0  0  0  0  0  0
    8.4871   -3.2868   26.2630 C   0  0  0  0  0  0  0  0  0  0  0  0
    8.8399   -4.5708   25.5756 C   0  0  0  0  0  0  0  0  0  0  0  0
    8.7580   -5.4832   26.5955 O   0  0  0  0  0  0  0  0  0  0  0  0
   10.2220   -4.5646   24.9365 C   0  0  0  0  0  0  0  0  0  0  0  0
   10.3385   -3.2456   24.2302 C   0  0  0  0  0  0  0  0  0  0  0  0
    9.3082   -3.0925   23.1745 N   0  0  0  0  0  0  0  0  0  0  0  0
    9.2233   -1.6793   22.7977 C   0  0  0  0  0  0  0  0  0  0  0  0
   10.5995   -1.1313   22.5628 C   0  0  0  0  0  0  0  0  0  0  0  0
   11.3115   -0.4601   23.4949 N   0  0  0  0  0  0  0  0  0  0  0  0
   12.4428   -0.1500   22.8244 C   0  0  0  0  0  0  0  0  0  0  0  0
   12.4123   -0.6051   21.5599 N   0  0  0  0  0  0  0  0  0  0  0  0
   11.2581   -1.2189   21.3940 N   0  0  0  0  0  0  0  0  0  0  0  0
    7.9398   -3.6438   23.4143 C   0  0  0  0  0  0  0  0  0  0  0  0
    7.8254   -4.7704   24.4685 C   0  0  0  0  0  0  0  0  0  0  0  0
  1  2  3  0
  2  3  1  0
  3  4  1  0
  3  5  1  0
  5  6  1  0
  6  7  1  0
  7  8  1  0
  7 14  1  0
  8  9  1  0
  9 10  1  0
 10 11  2  0
 11 12  1  0
 12 13  1  0
 13  9  2  0
 14 15  1  0
 15  3  1  0
M  END
>  <Hit>  (262) 
Mpro-x0387_0

>  <Receptor>  (262) 
Mpro-x1249_0

>  <SCORE>  (262) 
-10.0243

>  <SCORE.norm>  (262) 
-0.66828900000000002

>  <SCORE.heavy>  (262) 
15

>  <OrigSmiles>  (262) 
C#CC1(O)CCN(Cc2nc[nH]n2)CC1

>  <SuCOS_Score>  (262) 
0.40418539999760789

>  <Max_SuCOS_Score>  (262) 
0

>  <Cum_SuCOS_Score>  (262) 
0

>  <TransFSScore_50nM>  (262) 
0.0030019999999999999

>  <TransFSScore_1uM>  (262) 
0.039709000000000001

>  <TransFSScore_10nM>  (262) 
0.0065440000000000003

>  <TransFSScore_200nM>  (262) 
0.011302

>  <TransFSScore>  (262) 
0.01513925

>  <FeatureSteinScore>  (262) 
0.42134552843945133

$$$$
C#CC1(O)CCN(Cc2ncc[nH]2)CC1
     RDKit          3D

 15 16  0  0  0  0  0  0  0  0999 V2000
    8.6962   -2.2784   27.1883 C   0  0  0  0  0  0  0  0  0  0  0  0
    8.7257   -3.4350   26.8441 C   0  0  0  0  0  0  0  0  0  0  0  0
    8.7594   -4.8548   26.3995 C   0  0  0  0  0  0  0  0  0  0  0  0
    8.6516   -5.4666   27.6111 O   0  0  0  0  0  0  0  0  0  0  0  0
   10.0759   -5.1751   25.7081 C   0  0  0  0  0  0  0  0  0  0  0  0
   10.2956   -4.1248   24.6225 C   0  0  0  0  0  0  0  0  0  0  0  0
    9.0403   -3.6745   23.9643 N   0  0  0  0  0  0  0  0  0  0  0  0
    9.1905   -3.0196   22.6612 C   0  0  0  0  0  0  0  0  0  0  0  0
   10.2296   -1.9442   22.6155 C   0  0  0  0  0  0  0  0  0  0  0  0
   10.6750   -1.3008   23.7158 N   0  0  0  0  0  0  0  0  0  0  0  0
   11.6058   -0.4495   23.2404 C   0  0  0  0  0  0  0  0  0  0  0  0
   11.7086   -0.5940   21.8751 C   0  0  0  0  0  0  0  0  0  0  0  0
   10.8397   -1.5381   21.4849 N   0  0  0  0  0  0  0  0  0  0  0  0
    7.9590   -4.6868   23.9752 C   0  0  0  0  0  0  0  0  0  0  0  0
    7.5931   -5.1159   25.4248 C   0  0  0  0  0  0  0  0  0  0  0  0
  1  2  3  0
  2  3  1  0
  3  4  1  0
  3  5  1  0
  5  6  1  0
  6  7  1  0
  7  8  1  0
  7 14  1  0
  8  9  1  0
  9 10  2  0
 10 11  1  0
 11 12  2  0
 12 13  1  0
 13  9  1  0
 14 15  1  0
 15  3  1  0
M  END
>  <Hit>  (263) 
Mpro-x0387_0

>  <Receptor>  (263) 
Mpro-x1249_0

>  <SCORE>  (263) 
-12.141400000000001

>  <SCORE.norm>  (263) 
-0.80942499999999995

>  <SCORE.heavy>  (263) 
15

>  <OrigSmiles>  (263) 
C#CC1(O)CCN(Cc2ncc[nH]2)CC1

>  <SuCOS_Score>  (263) 
0.4499437017526503

>  <Max_SuCOS_Score>  (263) 
0

>  <Cum_SuCOS_Score>  (263) 
0

>  <TransFSScore_50nM>  (263) 
0.0042220000000000001

>  <TransFSScore_1uM>  (263) 
0.050715999999999997

>  <TransFSScore_10nM>  (263) 
0.007208

>  <TransFSScore_200nM>  (263) 
0.437386

>  <TransFSScore>  (263) 
0.12488299999999999

>  <FeatureSteinScore>  (263) 
0.283828588267305

$$$$
C#CC1(O)CCN(Cc2ncccn2)CC1
     RDKit          3D

 16 17  0  0  0  0  0  0  0  0999 V2000
    8.1118   -5.7590   28.6021 C   0  0  0  0  0  0  0  0  0  0  0  0
    8.6441   -5.6082   27.5305 C   0  0  0  0  0  0  0  0  0  0  0  0
    9.2950   -5.4235   26.2198 C   0  0  0  0  0  0  0  0  0  0  0  0
    9.8352   -6.6676   25.8533 O   0  0  0  0  0  0  0  0  0  0  0  0
    8.2169   -5.0187   25.2070 C   0  0  0  0  0  0  0  0  0  0  0  0
    8.8012   -4.5031   23.8902 C   0  0  0  0  0  0  0  0  0  0  0  0
    9.9274   -3.5504   24.0711 N   0  0  0  0  0  0  0  0  0  0  0  0
   10.0933   -2.4713   23.0756 C   0  0  0  0  0  0  0  0  0  0  0  0
   11.3071   -1.6100   23.2514 C   0  0  0  0  0  0  0  0  0  0  0  0
   11.2736   -0.5767   24.1364 N   0  0  0  0  0  0  0  0  0  0  0  0
   12.3435    0.2437   24.2963 C   0  0  0  0  0  0  0  0  0  0  0  0
   13.4962    0.0369   23.5413 C   0  0  0  0  0  0  0  0  0  0  0  0
   13.5144   -1.0190   22.6315 C   0  0  0  0  0  0  0  0  0  0  0  0
   12.4248   -1.8212   22.4979 N   0  0  0  0  0  0  0  0  0  0  0  0
   10.1738   -3.1214   25.4581 C   0  0  0  0  0  0  0  0  0  0  0  0
   10.4159   -4.3547   26.3464 C   0  0  0  0  0  0  0  0  0  0  0  0
  1  2  3  0
  2  3  1  0
  3  4  1  0
  3  5  1  0
  5  6  1  0
  6  7  1  0
  7  8  1  0
  7 15  1  0
  8  9  1  0
  9 10  2  0
 10 11  1  0
 11 12  2  0
 12 13  1  0
 13 14  2  0
 14  9  1  0
 15 16  1  0
 16  3  1  0
M  END
>  <Hit>  (264) 
Mpro-x0387_0

>  <Receptor>  (264) 
Mpro-x0387_0

>  <SCORE>  (264) 
-11.886900000000001

>  <SCORE.norm>  (264) 
-0.74292899999999995

>  <SCORE.heavy>  (264) 
16

>  <OrigSmiles>  (264) 
C#CC1(O)CCN(Cc2ncccn2)CC1

>  <SuCOS_Score>  (264) 
0.55718767107870193

>  <Max_SuCOS_Score>  (264) 
0

>  <Cum_SuCOS_Score>  (264) 
0

>  <TransFSScore_50nM>  (264) 
0.041167000000000002

>  <TransFSScore_1uM>  (264) 
0.041084000000000002

>  <TransFSScore_10nM>  (264) 
0.0079039999999999996

>  <TransFSScore_200nM>  (264) 
0.070702000000000001

>  <TransFSScore>  (264) 
0.04021425

>  <FeatureSteinScore>  (264) 
0.3654082926411012

$$$$
C#CC1(O)CCN(Cc2nccs2)CC1
     RDKit          3D

 15 16  0  0  0  0  0  0  0  0999 V2000
   10.5065   -5.2732   25.1905 C   0  0  0  0  0  0  0  0  0  0  0  0
    9.5702   -4.6546   25.6354 C   0  0  0  0  0  0  0  0  0  0  0  0
    8.4214   -3.8756   26.1720 C   0  0  0  0  0  0  0  0  0  0  0  0
    8.1633   -4.6078   27.2907 O   0  0  0  0  0  0  0  0  0  0  0  0
    7.2554   -3.8868   25.1954 C   0  0  0  0  0  0  0  0  0  0  0  0
    7.7888   -3.4490   23.8340 C   0  0  0  0  0  0  0  0  0  0  0  0
    8.8614   -2.4219   23.9148 N   0  0  0  0  0  0  0  0  0  0  0  0
    9.1137   -1.6500   22.6943 C   0  0  0  0  0  0  0  0  0  0  0  0
   10.4929   -1.0822   22.5825 C   0  0  0  0  0  0  0  0  0  0  0  0
   11.2965   -1.2392   21.5072 N   0  0  0  0  0  0  0  0  0  0  0  0
   12.5064   -0.6415   21.6685 C   0  0  0  0  0  0  0  0  0  0  0  0
   12.6786    0.0038   22.8879 C   0  0  0  0  0  0  0  0  0  0  0  0
   11.2643   -0.1898   23.7817 S   0  0  0  0  0  0  0  0  0  0  0  0
    8.7888   -1.5705   25.1249 C   0  0  0  0  0  0  0  0  0  0  0  0
    8.8618   -2.4197   26.4259 C   0  0  0  0  0  0  0  0  0  0  0  0
  1  2  3  0
  2  3  1  0
  3  4  1  0
  3  5  1  0
  5  6  1  0
  6  7  1  0
  7  8  1  0
  7 14  1  0
  8  9  1  0
  9 10  2  0
 10 11  1  0
 11 12  2  0
 12 13  1  0
 13  9  1  0
 14 15  1  0
 15  3  1  0
M  END
>  <Hit>  (265) 
Mpro-x0387_0

>  <Receptor>  (265) 
Mpro-x1249_0

>  <SCORE>  (265) 
-11.388299999999999

>  <SCORE.norm>  (265) 
-0.75922000000000001

>  <SCORE.heavy>  (265) 
15

>  <OrigSmiles>  (265) 
C#CC1(O)CCN(Cc2nccs2)CC1

>  <SuCOS_Score>  (265) 
0.48563208391850865

>  <Max_SuCOS_Score>  (265) 
0

>  <Cum_SuCOS_Score>  (265) 
0

>  <TransFSScore_50nM>  (265) 
0.0024559999999999998

>  <TransFSScore_1uM>  (265) 
0.072964000000000001

>  <TransFSScore_10nM>  (265) 
0.066164000000000001

>  <TransFSScore_200nM>  (265) 
0.045079000000000001

>  <TransFSScore>  (265) 
0.046665749999999999

>  <FeatureSteinScore>  (265) 
0.62308905787601332

$$$$
C#CC1(O)CCN(Cc2ncn[nH]2)CC1
     RDKit          3D

 15 16  0  0  0  0  0  0  0  0999 V2000
   10.7522   -5.5831   25.4527 C   0  0  0  0  0  0  0  0  0  0  0  0
    9.7580   -5.0422   25.8724 C   0  0  0  0  0  0  0  0  0  0  0  0
    8.5411   -4.3746   26.4089 C   0  0  0  0  0  0  0  0  0  0  0  0
    8.3611   -5.1187   27.5350 O   0  0  0  0  0  0  0  0  0  0  0  0
    7.3771   -4.5082   25.4386 C   0  0  0  0  0  0  0  0  0  0  0  0
    7.8590   -4.0321   24.0708 C   0  0  0  0  0  0  0  0  0  0  0  0
    8.8268   -2.9047   24.1375 N   0  0  0  0  0  0  0  0  0  0  0  0
    8.9943   -2.1220   22.9093 C   0  0  0  0  0  0  0  0  0  0  0  0
   10.2502   -1.3127   22.8477 C   0  0  0  0  0  0  0  0  0  0  0  0
   10.6603   -0.4763   23.8271 N   0  0  0  0  0  0  0  0  0  0  0  0
   11.8014    0.0319   23.3118 C   0  0  0  0  0  0  0  0  0  0  0  0
   12.0617   -0.4676   22.0912 N   0  0  0  0  0  0  0  0  0  0  0  0
   11.0909   -1.3092   21.7988 N   0  0  0  0  0  0  0  0  0  0  0  0
    8.6768   -2.0541   25.3409 C   0  0  0  0  0  0  0  0  0  0  0  0
    8.8381   -2.8805   26.6486 C   0  0  0  0  0  0  0  0  0  0  0  0
  1  2  3  0
  2  3  1  0
  3  4  1  0
  3  5  1  0
  5  6  1  0
  6  7  1  0
  7  8  1  0
  7 14  1  0
  8  9  1  0
  9 10  2  0
 10 11  1  0
 11 12  2  0
 12 13  1  0
 13  9  1  0
 14 15  1  0
 15  3  1  0
M  END
>  <Hit>  (266) 
Mpro-x0387_0

>  <Receptor>  (266) 
Mpro-x1249_0

>  <SCORE>  (266) 
-10.3156

>  <SCORE.norm>  (266) 
-0.68770900000000001

>  <SCORE.heavy>  (266) 
15

>  <OrigSmiles>  (266) 
C#CC1(O)CCN(Cc2ncn[nH]2)CC1

>  <SuCOS_Score>  (266) 
0.50012493382730883

>  <Max_SuCOS_Score>  (266) 
0

>  <Cum_SuCOS_Score>  (266) 
0

>  <TransFSScore_50nM>  (266) 
0.001735

>  <TransFSScore_1uM>  (266) 
0.037198000000000002

>  <TransFSScore_10nM>  (266) 
0.0040489999999999996

>  <TransFSScore_200nM>  (266) 
0.027118

>  <TransFSScore>  (266) 
0.017524999999999999

>  <FeatureSteinScore>  (266) 
0.33983381945824503

$$$$
C#CC1(O)CCN(Cc2ncno2)CC1
     RDKit          3D

 15 16  0  0  0  0  0  0  0  0999 V2000
    7.6277   -6.3623   27.9612 C   0  0  0  0  0  0  0  0  0  0  0  0
    8.1453   -6.0079   26.9314 C   0  0  0  0  0  0  0  0  0  0  0  0
    8.7810   -5.5721   25.6673 C   0  0  0  0  0  0  0  0  0  0  0  0
    9.5619   -6.6304   25.1657 O   0  0  0  0  0  0  0  0  0  0  0  0
    7.6781   -5.2269   24.6559 C   0  0  0  0  0  0  0  0  0  0  0  0
    8.2252   -4.5021   23.4255 C   0  0  0  0  0  0  0  0  0  0  0  0
    9.1384   -3.3777   23.7617 N   0  0  0  0  0  0  0  0  0  0  0  0
    9.1268   -2.1832   22.8936 C   0  0  0  0  0  0  0  0  0  0  0  0
   10.4486   -1.5165   22.6983 C   0  0  0  0  0  0  0  0  0  0  0  0
   11.1307   -1.5025   21.5412 N   0  0  0  0  0  0  0  0  0  0  0  0
   12.2455   -0.8206   21.8593 C   0  0  0  0  0  0  0  0  0  0  0  0
   12.2373   -0.4409   23.1532 N   0  0  0  0  0  0  0  0  0  0  0  0
   11.1152   -0.8893   23.6371 O   0  0  0  0  0  0  0  0  0  0  0  0
    9.2720   -3.0789   25.1972 C   0  0  0  0  0  0  0  0  0  0  0  0
    9.7014   -4.3536   25.9489 C   0  0  0  0  0  0  0  0  0  0  0  0
  1  2  3  0
  2  3  1  0
  3  4  1  0
  3  5  1  0
  5  6  1  0
  6  7  1  0
  7  8  1  0
  7 14  1  0
  8  9  1  0
  9 10  2  0
 10 11  1  0
 11 12  2  0
 12 13  1  0
 13  9  1  0
 14 15  1  0
 15  3  1  0
M  END
>  <Hit>  (267) 
Mpro-x0387_0

>  <Receptor>  (267) 
Mpro-x0874_0

>  <SCORE>  (267) 
-10.4434

>  <SCORE.norm>  (267) 
-0.69622399999999995

>  <SCORE.heavy>  (267) 
15

>  <OrigSmiles>  (267) 
C#CC1(O)CCN(Cc2ncno2)CC1

>  <SuCOS_Score>  (267) 
0.39415548064484701

>  <Max_SuCOS_Score>  (267) 
0

>  <Cum_SuCOS_Score>  (267) 
0

>  <TransFSScore_50nM>  (267) 
0.0054679999999999998

>  <TransFSScore_1uM>  (267) 
0.051924999999999999

>  <TransFSScore_10nM>  (267) 
0.025277000000000001

>  <TransFSScore_200nM>  (267) 
0.0077530000000000003

>  <TransFSScore>  (267) 
0.022605749999999997

>  <FeatureSteinScore>  (267) 
0.40563086482707295

$$$$
C#CC1(O)CCN(Cc2ncon2)CC1
     RDKit          3D

 15 16  0  0  0  0  0  0  0  0999 V2000
   10.5502   -5.5596   25.7060 C   0  0  0  0  0  0  0  0  0  0  0  0
    9.4192   -5.1761   25.8815 C   0  0  0  0  0  0  0  0  0  0  0  0
    8.0133   -4.7225   26.1037 C   0  0  0  0  0  0  0  0  0  0  0  0
    7.7349   -5.3292   27.2966 O   0  0  0  0  0  0  0  0  0  0  0  0
    7.0960   -5.1740   24.9712 C   0  0  0  0  0  0  0  0  0  0  0  0
    7.7510   -4.7575   23.6579 C   0  0  0  0  0  0  0  0  0  0  0  0
    8.4719   -3.4596   23.7351 N   0  0  0  0  0  0  0  0  0  0  0  0
    8.7361   -2.7901   22.4584 C   0  0  0  0  0  0  0  0  0  0  0  0
   10.1302   -2.2751   22.2973 C   0  0  0  0  0  0  0  0  0  0  0  0
   10.4933   -1.3682   21.3664 N   0  0  0  0  0  0  0  0  0  0  0  0
   11.8129   -1.2509   21.6083 C   0  0  0  0  0  0  0  0  0  0  0  0
   12.1872   -2.0262   22.5964 O   0  0  0  0  0  0  0  0  0  0  0  0
   11.1660   -2.6837   23.0537 N   0  0  0  0  0  0  0  0  0  0  0  0
    7.9387   -2.5386   24.7646 C   0  0  0  0  0  0  0  0  0  0  0  0
    7.9787   -3.1834   26.1800 C   0  0  0  0  0  0  0  0  0  0  0  0
  1  2  3  0
  2  3  1  0
  3  4  1  0
  3  5  1  0
  5  6  1  0
  6  7  1  0
  7  8  1  0
  7 14  1  0
  8  9  1  0
  9 10  1  0
 10 11  2  0
 11 12  1  0
 12 13  1  0
 13  9  2  0
 14 15  1  0
 15  3  1  0
M  END
>  <Hit>  (268) 
Mpro-x0387_0

>  <Receptor>  (268) 
Mpro-x0874_0

>  <SCORE>  (268) 
-10.4444

>  <SCORE.norm>  (268) 
-0.69629300000000005

>  <SCORE.heavy>  (268) 
15

>  <OrigSmiles>  (268) 
C#CC1(O)CCN(Cc2ncon2)CC1

>  <SuCOS_Score>  (268) 
0.32170018158523001

>  <Max_SuCOS_Score>  (268) 
0

>  <Cum_SuCOS_Score>  (268) 
0

>  <TransFSScore_50nM>  (268) 
0.001428

>  <TransFSScore_1uM>  (268) 
0.097397999999999998

>  <TransFSScore_10nM>  (268) 
0.013979999999999999

>  <TransFSScore_200nM>  (268) 
0.019709999999999998

>  <TransFSScore>  (268) 
0.033128999999999999

>  <FeatureSteinScore>  (268) 
0.30333854620799594

$$$$
C#CC1(O)CCN(Cc2nnc[nH]2)CC1
     RDKit          3D

 15 16  0  0  0  0  0  0  0  0999 V2000
    8.8778   -2.3538   27.4962 C   0  0  0  0  0  0  0  0  0  0  0  0
    8.8656   -3.5332   27.2401 C   0  0  0  0  0  0  0  0  0  0  0  0
    8.8394   -4.9885   26.9040 C   0  0  0  0  0  0  0  0  0  0  0  0
    8.7526   -5.5374   28.1529 O   0  0  0  0  0  0  0  0  0  0  0  0
   10.0965   -5.4092   26.1485 C   0  0  0  0  0  0  0  0  0  0  0  0
   10.2767   -4.4400   24.9843 C   0  0  0  0  0  0  0  0  0  0  0  0
    8.9965   -3.9958   24.3731 N   0  0  0  0  0  0  0  0  0  0  0  0
    9.0844   -3.4431   23.0185 C   0  0  0  0  0  0  0  0  0  0  0  0
   10.1140   -2.3736   22.8435 C   0  0  0  0  0  0  0  0  0  0  0  0
    9.8212   -1.0870   22.5803 N   0  0  0  0  0  0  0  0  0  0  0  0
   10.9765   -0.4546   22.4751 N   0  0  0  0  0  0  0  0  0  0  0  0
   11.9416   -1.3707   22.6748 C   0  0  0  0  0  0  0  0  0  0  0  0
   11.4406   -2.5988   22.9100 N   0  0  0  0  0  0  0  0  0  0  0  0
    7.8914   -4.9700   24.5231 C   0  0  0  0  0  0  0  0  0  0  0  0
    7.6123   -5.2871   26.0204 C   0  0  0  0  0  0  0  0  0  0  0  0
  1  2  3  0
  2  3  1  0
  3  4  1  0
  3  5  1  0
  5  6  1  0
  6  7  1  0
  7  8  1  0
  7 14  1  0
  8  9  1  0
  9 10  2  0
 10 11  1  0
 11 12  2  0
 12 13  1  0
 13  9  1  0
 14 15  1  0
 15  3  1  0
M  END
>  <Hit>  (269) 
Mpro-x0387_0

>  <Receptor>  (269) 
Mpro-x0305_0

>  <SCORE>  (269) 
-10.1511

>  <SCORE.norm>  (269) 
-0.67674100000000004

>  <SCORE.heavy>  (269) 
15

>  <OrigSmiles>  (269) 
C#CC1(O)CCN(Cc2nnc[nH]2)CC1

>  <SuCOS_Score>  (269) 
0.4090450356869284

>  <Max_SuCOS_Score>  (269) 
0

>  <Cum_SuCOS_Score>  (269) 
0

>  <TransFSScore_50nM>  (269) 
0.00060099999999999997

>  <TransFSScore_1uM>  (269) 
0.029734

>  <TransFSScore_10nM>  (269) 
0.0011180000000000001

>  <TransFSScore_200nM>  (269) 
0.072265999999999997

>  <TransFSScore>  (269) 
0.025929750000000001

>  <FeatureSteinScore>  (269) 
0.25398620232304059

$$$$
C#CC1(O)CCN(Cc2nnn[nH]2)CC1
     RDKit          3D

 15 16  0  0  0  0  0  0  0  0999 V2000
    7.5756   -6.4260   28.0186 C   0  0  0  0  0  0  0  0  0  0  0  0
    8.1229   -6.0648   27.0066 C   0  0  0  0  0  0  0  0  0  0  0  0
    8.7949   -5.6213   25.7644 C   0  0  0  0  0  0  0  0  0  0  0  0
    9.5584   -6.6897   25.2609 O   0  0  0  0  0  0  0  0  0  0  0  0
    7.7102   -5.2887   24.7352 C   0  0  0  0  0  0  0  0  0  0  0  0
    8.2633   -4.5499   23.5149 C   0  0  0  0  0  0  0  0  0  0  0  0
    9.1698   -3.4248   23.8653 N   0  0  0  0  0  0  0  0  0  0  0  0
    9.1678   -2.2274   23.0005 C   0  0  0  0  0  0  0  0  0  0  0  0
   10.4976   -1.5796   22.7913 C   0  0  0  0  0  0  0  0  0  0  0  0
   11.1594   -0.8752   23.7347 N   0  0  0  0  0  0  0  0  0  0  0  0
   12.2486   -0.4436   23.1158 N   0  0  0  0  0  0  0  0  0  0  0  0
   12.2551   -0.8513   21.8588 N   0  0  0  0  0  0  0  0  0  0  0  0
   11.1692   -1.5629   21.6244 N   0  0  0  0  0  0  0  0  0  0  0  0
    9.2786   -3.1263   25.3028 C   0  0  0  0  0  0  0  0  0  0  0  0
    9.7058   -4.3967   26.0598 C   0  0  0  0  0  0  0  0  0  0  0  0
  1  2  3  0
  2  3  1  0
  3  4  1  0
  3  5  1  0
  5  6  1  0
  6  7  1  0
  7  8  1  0
  7 14  1  0
  8  9  1  0
  9 10  2  0
 10 11  1  0
 11 12  2  0
 12 13  1  0
 13  9  1  0
 14 15  1  0
 15  3  1  0
M  END
>  <Hit>  (270) 
Mpro-x0387_0

>  <Receptor>  (270) 
Mpro-x0874_0

>  <SCORE>  (270) 
-10.809799999999999

>  <SCORE.norm>  (270) 
-0.72065299999999999

>  <SCORE.heavy>  (270) 
15

>  <OrigSmiles>  (270) 
C#CC1(O)CCN(Cc2nnn[nH]2)CC1

>  <SuCOS_Score>  (270) 
0.40681748925051386

>  <Max_SuCOS_Score>  (270) 
0

>  <Cum_SuCOS_Score>  (270) 
0

>  <TransFSScore_50nM>  (270) 
0.0060299999999999998

>  <TransFSScore_1uM>  (270) 
0.014257000000000001

>  <TransFSScore_10nM>  (270) 
0.0061609999999999998

>  <TransFSScore_200nM>  (270) 
0.011782000000000001

>  <TransFSScore>  (270) 
0.0095575

>  <FeatureSteinScore>  (270) 
0.2904906775351957

$$$$
C#CC1CCCCN1Cc1cscc1C
     RDKit          3D

 15 16  0  0  0  0  0  0  0  0999 V2000
    6.5021   -1.8167   24.1829 C   0  0  0  0  0  0  0  0  0  0  0  0
    7.3511   -2.4028   23.5563 C   0  0  0  0  0  0  0  0  0  0  0  0
    8.3732   -3.1789   22.8143 C   0  0  2  0  0  0  0  0  0  0  0  0
    8.1695   -4.6122   23.2790 C   0  0  0  0  0  0  0  0  0  0  0  0
    8.8351   -4.9933   24.5896 C   0  0  0  0  0  0  0  0  0  0  0  0
   10.2018   -4.3568   24.7950 C   0  0  0  0  0  0  0  0  0  0  0  0
   10.1763   -2.8628   24.4607 C   0  0  0  0  0  0  0  0  0  0  0  0
    9.7435   -2.6834   23.0622 N   0  0  0  0  0  0  0  0  0  0  0  0
   10.1268   -1.3706   22.4990 C   0  0  0  0  0  0  0  0  0  0  0  0
   11.6049   -1.0879   22.4651 C   0  0  0  0  0  0  0  0  0  0  0  0
   12.4092   -1.6115   21.4591 C   0  0  0  0  0  0  0  0  0  0  0  0
   13.9689   -1.0627   21.6847 S   0  0  0  0  0  0  0  0  0  0  0  0
   13.6614   -0.1234   23.0389 C   0  0  0  0  0  0  0  0  0  0  0  0
   12.3102   -0.2488   23.3623 C   0  0  0  0  0  0  0  0  0  0  0  0
   11.6787    0.4722   24.5135 C   0  0  0  0  0  0  0  0  0  0  0  0
  1  2  3  0
  3  2  1  1
  3  4  1  0
  4  5  1  0
  5  6  1  0
  6  7  1  0
  7  8  1  0
  8  9  1  0
  8  3  1  0
  9 10  1  0
 10 11  2  0
 11 12  1  0
 12 13  1  0
 13 14  2  0
 14 15  1  0
 14 10  1  0
M  END
>  <Hit>  (271) 
Mpro-x0387_0

>  <Receptor>  (271) 
Mpro-x0305_0

>  <SCORE>  (271) 
-11.164999999999999

>  <SCORE.norm>  (271) 
-0.74433099999999996

>  <SCORE.heavy>  (271) 
15

>  <OrigSmiles>  (271) 
C#CC1CCCCN1Cc1cscc1C

>  <SuCOS_Score>  (271) 
0.43360260310509108

>  <Max_SuCOS_Score>  (271) 
0

>  <Cum_SuCOS_Score>  (271) 
0

>  <TransFSScore_50nM>  (271) 
0.00114

>  <TransFSScore_1uM>  (271) 
0.119975

>  <TransFSScore_10nM>  (271) 
0.04197

>  <TransFSScore_200nM>  (271) 
0.029922000000000001

>  <TransFSScore>  (271) 
0.048251750000000003

>  <FeatureSteinScore>  (271) 
0.44346474151863263

$$$$
C#CC1CCCN(Cc2ccsc2Br)C1
     RDKit          3D

 15 16  0  0  0  0  0  0  0  0999 V2000
    9.4016   -0.4731   26.8797 C   0  0  0  0  0  0  0  0  0  0  0  0
    8.8467   -1.2464   26.1397 C   0  0  0  0  0  0  0  0  0  0  0  0
    8.1651   -2.1912   25.2330 C   0  0  2  0  0  0  0  0  0  0  0  0
    8.5955   -3.6366   25.5010 C   0  0  0  0  0  0  0  0  0  0  0  0
    9.7047   -4.1414   24.5666 C   0  0  0  0  0  0  0  0  0  0  0  0
   10.6051   -3.0405   23.9810 C   0  0  0  0  0  0  0  0  0  0  0  0
    9.8703   -1.8394   23.5311 N   0  0  0  0  0  0  0  0  0  0  0  0
   10.2054   -1.3600   22.1988 C   0  0  0  0  0  0  0  0  0  0  0  0
   11.6593   -0.9848   22.2120 C   0  0  0  0  0  0  0  0  0  0  0  0
   12.6202   -1.5095   21.3234 C   0  0  0  0  0  0  0  0  0  0  0  0
   13.8908   -0.9705   21.5081 C   0  0  0  0  0  0  0  0  0  0  0  0
   13.8122    0.1629   22.7430 S   0  0  0  0  0  0  0  0  0  0  0  0
   12.1807   -0.0096   23.0643 C   0  0  0  0  0  0  0  0  0  0  0  0
   11.2564    0.9443   24.4396 Br  0  0  0  0  0  0  0  0  0  0  0  0
    8.4239   -1.8300   23.7786 C   0  0  0  0  0  0  0  0  0  0  0  0
  1  2  3  0
  3  2  1  1
  3  4  1  0
  4  5  1  0
  5  6  1  0
  6  7  1  0
  7  8  1  0
  7 15  1  0
  8  9  1  0
  9 10  1  0
 10 11  2  0
 11 12  1  0
 12 13  1  0
 13 14  1  0
 13  9  2  0
 15  3  1  0
M  END
>  <Hit>  (272) 
Mpro-x0387_0

>  <Receptor>  (272) 
Mpro-x0874_0

>  <SCORE>  (272) 
-10.375299999999999

>  <SCORE.norm>  (272) 
-0.69168600000000002

>  <SCORE.heavy>  (272) 
15

>  <OrigSmiles>  (272) 
C#CC1CCCN(Cc2ccsc2Br)C1

>  <SuCOS_Score>  (272) 
0.4023205820561071

>  <Max_SuCOS_Score>  (272) 
0

>  <Cum_SuCOS_Score>  (272) 
0

>  <TransFSScore_50nM>  (272) 
0.00095

>  <TransFSScore_1uM>  (272) 
0.003748

>  <TransFSScore_10nM>  (272) 
0.0023080000000000002

>  <TransFSScore_200nM>  (272) 
0.0050480000000000004

>  <TransFSScore>  (272) 
0.0030135000000000001

>  <FeatureSteinScore>  (272) 
0.32302291571259845

$$$$
C#CC1CCCN(Cc2cscc2C)C1
     RDKit          3D

 15 16  0  0  0  0  0  0  0  0999 V2000
    7.0822   -2.5821   26.4353 C   0  0  0  0  0  0  0  0  0  0  0  0
    7.4124   -3.2338   25.4762 C   0  0  0  0  0  0  0  0  0  0  0  0
    7.8142   -4.0299   24.2998 C   0  0  2  0  0  0  0  0  0  0  0  0
    8.8641   -5.0723   24.6745 C   0  0  0  0  0  0  0  0  0  0  0  0
   10.2737   -4.4924   24.8596 C   0  0  0  0  0  0  0  0  0  0  0  0
   10.3692   -2.9894   24.5415 C   0  0  0  0  0  0  0  0  0  0  0  0
    9.7092   -2.7050   23.2566 N   0  0  0  0  0  0  0  0  0  0  0  0
   10.0874   -1.4069   22.6611 C   0  0  0  0  0  0  0  0  0  0  0  0
   11.5635   -1.1323   22.5624 C   0  0  0  0  0  0  0  0  0  0  0  0
   12.3249   -1.6421   21.5171 C   0  0  0  0  0  0  0  0  0  0  0  0
   13.8776   -1.0348   21.6577 S   0  0  0  0  0  0  0  0  0  0  0  0
   13.6320   -0.1425   23.0556 C   0  0  0  0  0  0  0  0  0  0  0  0
   12.3048   -0.3086   23.4488 C   0  0  0  0  0  0  0  0  0  0  0  0
   11.7257    0.3735   24.6505 C   0  0  0  0  0  0  0  0  0  0  0  0
    8.2902   -3.1311   23.1474 C   0  0  0  0  0  0  0  0  0  0  0  0
  1  2  3  0
  3  2  1  1
  3  4  1  0
  4  5  1  0
  5  6  1  0
  6  7  1  0
  7  8  1  0
  7 15  1  0
  8  9  1  0
  9 10  2  0
 10 11  1  0
 11 12  1  0
 12 13  2  0
 13 14  1  0
 13  9  1  0
 15  3  1  0
M  END
>  <Hit>  (273) 
Mpro-x0387_0

>  <Receptor>  (273) 
Mpro-x0305_0

>  <SCORE>  (273) 
-10.413399999999999

>  <SCORE.norm>  (273) 
-0.69422600000000001

>  <SCORE.heavy>  (273) 
15

>  <OrigSmiles>  (273) 
C#CC1CCCN(Cc2cscc2C)C1

>  <SuCOS_Score>  (273) 
0.48535200608039003

>  <Max_SuCOS_Score>  (273) 
0

>  <Cum_SuCOS_Score>  (273) 
0

>  <TransFSScore_50nM>  (273) 
0.00099700000000000006

>  <TransFSScore_1uM>  (273) 
0.053985999999999999

>  <TransFSScore_10nM>  (273) 
0.038755999999999999

>  <TransFSScore_200nM>  (273) 
0.019751999999999999

>  <TransFSScore>  (273) 
0.028372749999999995

>  <FeatureSteinScore>  (273) 
0.5918138885849541

$$$$
C#CC1CCN(Cc2ccsc2Br)CC1
     RDKit          3D

 15 16  0  0  0  0  0  0  0  0999 V2000
    9.8425   -3.7722   28.6051 C   0  0  0  0  0  0  0  0  0  0  0  0
    9.6770   -4.4345   27.6113 C   0  0  0  0  0  0  0  0  0  0  0  0
    9.4750   -5.2463   26.3967 C   0  0  0  0  0  0  0  0  0  0  0  0
   10.7848   -5.3580   25.6194 C   0  0  0  0  0  0  0  0  0  0  0  0
   11.1385   -4.0648   24.8796 C   0  0  0  0  0  0  0  0  0  0  0  0
    9.9804   -3.4437   24.1912 N   0  0  0  0  0  0  0  0  0  0  0  0
   10.2523   -2.6450   22.9784 C   0  0  0  0  0  0  0  0  0  0  0  0
   11.3303   -1.6043   23.1040 C   0  0  0  0  0  0  0  0  0  0  0  0
   12.5743   -1.6742   22.4357 C   0  0  0  0  0  0  0  0  0  0  0  0
   13.4445   -0.6457   22.7859 C   0  0  0  0  0  0  0  0  0  0  0  0
   12.6675    0.3427   23.8967 S   0  0  0  0  0  0  0  0  0  0  0  0
   11.2263   -0.5035   23.9487 C   0  0  0  0  0  0  0  0  0  0  0  0
    9.7539   -0.0364   25.0723 Br  0  0  0  0  0  0  0  0  0  0  0  0
    8.7664   -4.2753   24.1186 C   0  0  0  0  0  0  0  0  0  0  0  0
    8.3252   -4.6723   25.5405 C   0  0  0  0  0  0  0  0  0  0  0  0
  1  2  3  0
  2  3  1  0
  3  4  1  0
  4  5  1  0
  5  6  1  0
  6  7  1  0
  6 14  1  0
  7  8  1  0
  8  9  1  0
  9 10  2  0
 10 11  1  0
 11 12  1  0
 12 13  1  0
 12  8  2  0
 14 15  1  0
 15  3  1  0
M  END
>  <Hit>  (274) 
Mpro-x0387_0

>  <Receptor>  (274) 
Mpro-x0387_0

>  <SCORE>  (274) 
-10.757899999999999

>  <SCORE.norm>  (274) 
-0.71719299999999997

>  <SCORE.heavy>  (274) 
15

>  <OrigSmiles>  (274) 
C#CC1CCN(Cc2ccsc2Br)CC1

>  <SuCOS_Score>  (274) 
0.73300514987957877

>  <Max_SuCOS_Score>  (274) 
0

>  <Cum_SuCOS_Score>  (274) 
0

>  <TransFSScore_50nM>  (274) 
0.00036699999999999998

>  <TransFSScore_1uM>  (274) 
0.0054349999999999997

>  <TransFSScore_10nM>  (274) 
0.0015499999999999999

>  <TransFSScore_200nM>  (274) 
0.0021689999999999999

>  <TransFSScore>  (274) 
0.00238025

>  <FeatureSteinScore>  (274) 
0.51896668776164012

$$$$
C#CC1CCN(Cc2csc(C)c2)CC1
     RDKit          3D

 15 16  0  0  0  0  0  0  0  0999 V2000
    8.0479   -5.8361   27.5418 C   0  0  0  0  0  0  0  0  0  0  0  0
    8.3251   -5.6311   26.3865 C   0  0  0  0  0  0  0  0  0  0  0  0
    8.6644   -5.3803   24.9738 C   0  0  0  0  0  0  0  0  0  0  0  0
   10.0470   -4.7311   24.8500 C   0  0  0  0  0  0  0  0  0  0  0  0
    9.9223   -3.2480   24.5513 C   0  0  0  0  0  0  0  0  0  0  0  0
    9.2918   -3.0812   23.2326 N   0  0  0  0  0  0  0  0  0  0  0  0
    9.2777   -1.6636   22.8515 C   0  0  0  0  0  0  0  0  0  0  0  0
   10.6977   -1.2040   22.6456 C   0  0  0  0  0  0  0  0  0  0  0  0
   11.2425   -0.1520   23.3856 C   0  0  0  0  0  0  0  0  0  0  0  0
   12.7934    0.1389   22.8394 S   0  0  0  0  0  0  0  0  0  0  0  0
   12.7982   -1.0469   21.6527 C   0  0  0  0  0  0  0  0  0  0  0  0
   13.9610   -1.3875   20.7826 C   0  0  0  0  0  0  0  0  0  0  0  0
   11.5721   -1.7071   21.6634 C   0  0  0  0  0  0  0  0  0  0  0  0
    7.9737   -3.7467   23.0794 C   0  0  0  0  0  0  0  0  0  0  0  0
    7.5377   -4.5788   24.2970 C   0  0  0  0  0  0  0  0  0  0  0  0
  1  2  3  0
  2  3  1  0
  3  4  1  0
  4  5  1  0
  5  6  1  0
  6  7  1  0
  6 14  1  0
  7  8  1  0
  8  9  2  0
  9 10  1  0
 10 11  1  0
 11 12  1  0
 11 13  2  0
 13  8  1  0
 14 15  1  0
 15  3  1  0
M  END
>  <Hit>  (275) 
Mpro-x0387_0

>  <Receptor>  (275) 
Mpro-x0874_0

>  <SCORE>  (275) 
-10.4665

>  <SCORE.norm>  (275) 
-0.69776400000000005

>  <SCORE.heavy>  (275) 
15

>  <OrigSmiles>  (275) 
C#CC1CCN(Cc2csc(C)c2)CC1

>  <SuCOS_Score>  (275) 
0.46350062622319943

>  <Max_SuCOS_Score>  (275) 
0

>  <Cum_SuCOS_Score>  (275) 
0

>  <TransFSScore_50nM>  (275) 
0.0017060000000000001

>  <TransFSScore_1uM>  (275) 
0.026588000000000001

>  <TransFSScore_10nM>  (275) 
0.012966999999999999

>  <TransFSScore_200nM>  (275) 
0.0064520000000000003

>  <TransFSScore>  (275) 
0.01192825

>  <FeatureSteinScore>  (275) 
0.52275273253274623

$$$$
C#CC1CCN(Cc2cscc2C)CC1
     RDKit          3D

 15 16  0  0  0  0  0  0  0  0999 V2000
    8.0164   -3.6519   27.2756 C   0  0  0  0  0  0  0  0  0  0  0  0
    8.4184   -4.1335   26.2459 C   0  0  0  0  0  0  0  0  0  0  0  0
    8.9096   -4.7225   24.9851 C   0  0  0  0  0  0  0  0  0  0  0  0
   10.3787   -4.4005   24.7677 C   0  0  0  0  0  0  0  0  0  0  0  0
   10.5266   -2.9250   24.4413 C   0  0  0  0  0  0  0  0  0  0  0  0
    9.9055   -2.6520   23.1358 N   0  0  0  0  0  0  0  0  0  0  0  0
   10.1245   -1.2501   22.7627 C   0  0  0  0  0  0  0  0  0  0  0  0
   11.5929   -1.0109   22.5426 C   0  0  0  0  0  0  0  0  0  0  0  0
   12.2742   -1.6207   21.4901 C   0  0  0  0  0  0  0  0  0  0  0  0
   13.8823   -1.1831   21.5790 S   0  0  0  0  0  0  0  0  0  0  0  0
   13.7591   -0.2224   22.9471 C   0  0  0  0  0  0  0  0  0  0  0  0
   12.4325   -0.2327   23.3745 C   0  0  0  0  0  0  0  0  0  0  0  0
   11.9678    0.5045   24.5936 C   0  0  0  0  0  0  0  0  0  0  0  0
    8.4660   -2.9569   23.1045 C   0  0  0  0  0  0  0  0  0  0  0  0
    8.0488   -4.2575   23.8076 C   0  0  0  0  0  0  0  0  0  0  0  0
  1  2  3  0
  2  3  1  0
  3  4  1  0
  4  5  1  0
  5  6  1  0
  6  7  1  0
  6 14  1  0
  7  8  1  0
  8  9  2  0
  9 10  1  0
 10 11  1  0
 11 12  2  0
 12 13  1  0
 12  8  1  0
 14 15  1  0
 15  3  1  0
M  END
>  <Hit>  (276) 
Mpro-x0387_0

>  <Receptor>  (276) 
Mpro-x0305_0

>  <SCORE>  (276) 
-10.147500000000001

>  <SCORE.norm>  (276) 
-0.67650200000000005

>  <SCORE.heavy>  (276) 
15

>  <OrigSmiles>  (276) 
C#CC1CCN(Cc2cscc2C)CC1

>  <SuCOS_Score>  (276) 
0.48636125656516721

>  <Max_SuCOS_Score>  (276) 
0

>  <Cum_SuCOS_Score>  (276) 
0

>  <TransFSScore_50nM>  (276) 
0.0023379999999999998

>  <TransFSScore_1uM>  (276) 
0.032275999999999999

>  <TransFSScore_10nM>  (276) 
0.016660000000000001

>  <TransFSScore_200nM>  (276) 
0.014154

>  <TransFSScore>  (276) 
0.016357

>  <FeatureSteinScore>  (276) 
0.51515308706672636

$$$$
C#CCC(=O)C(O)c1cc(Cl)cc(Br)c1
     RDKit          3D

 15 15  0  0  0  0  0  0  0  0999 V2000
    7.2288    5.9436   21.3551 C   0  0  0  0  0  0  0  0  0  0  0  0
    8.1869    6.1197   22.0655 C   0  0  0  0  0  0  0  0  0  0  0  0
    9.3513    6.3335   22.9305 C   0  0  0  0  0  0  0  0  0  0  0  0
    9.6335    5.0880   23.7331 C   0  0  0  0  0  0  0  0  0  0  0  0
    8.9376    4.8571   24.7118 O   0  0  0  0  0  0  0  0  0  0  0  0
   10.7425    4.1092   23.3890 C   0  0  2  0  0  0  0  0  0  0  0  0
   11.7365    4.6829   22.5747 O   0  0  0  0  0  0  0  0  0  0  0  0
   10.1897    2.8419   22.7605 C   0  0  0  0  0  0  0  0  0  0  0  0
    8.9360    2.8461   22.1217 C   0  0  0  0  0  0  0  0  0  0  0  0
    8.4442    1.6774   21.5294 C   0  0  0  0  0  0  0  0  0  0  0  0
    6.8764    1.6880   20.7428 Cl  0  0  0  0  0  0  0  0  0  0  0  0
    9.2038    0.5013   21.5570 C   0  0  0  0  0  0  0  0  0  0  0  0
   10.4587    0.4935   22.1769 C   0  0  0  0  0  0  0  0  0  0  0  0
   11.5323   -1.0966   22.1885 Br  0  0  0  0  0  0  0  0  0  0  0  0
   10.9475    1.6581   22.7772 C   0  0  0  0  0  0  0  0  0  0  0  0
  1  2  3  0
  2  3  1  0
  3  4  1  0
  4  5  2  0
  4  6  1  0
  6  7  1  6
  6  8  1  0
  8  9  2  0
  9 10  1  0
 10 11  1  0
 10 12  2  0
 12 13  1  0
 13 14  1  0
 13 15  2  0
 15  8  1  0
M  END
>  <Hit>  (277) 
Mpro-x0946_0

>  <Receptor>  (277) 
Mpro-x0387_0

>  <SCORE>  (277) 
-10.3086

>  <SCORE.norm>  (277) 
-0.68723900000000004

>  <SCORE.heavy>  (277) 
15

>  <OrigSmiles>  (277) 
C#CCC(=O)C(O)c1cc(Cl)cc(Br)c1

>  <SuCOS_Score>  (277) 
0.26353088620605447

>  <Max_SuCOS_Score>  (277) 
0.27209762006223087

>  <Cum_SuCOS_Score>  (277) 
3.1003002229469319

>  <TransFSScore_50nM>  (277) 
0.0083529999999999993

>  <TransFSScore_1uM>  (277) 
0.025269

>  <TransFSScore_10nM>  (277) 
0.0052769999999999996

>  <TransFSScore_200nM>  (277) 
0.010274

>  <TransFSScore>  (277) 
0.012293249999999999

>  <FeatureSteinScore>  (277) 
0.08418657895413964

$$$$
C#CCC(=O)C12CCC(CC1)N2
     RDKit          3D

 12 13  0  0  0  0  0  0  0  0999 V2000
   10.6460   -2.7373   24.2278 C   0  0  0  0  0  0  0  0  0  0  0  0
    9.8610   -3.6321   24.4185 C   0  0  0  0  0  0  0  0  0  0  0  0
    8.9048   -4.7248   24.6505 C   0  0  0  0  0  0  0  0  0  0  0  0
    9.0630   -5.2693   26.0460 C   0  0  0  0  0  0  0  0  0  0  0  0
   10.1826   -5.5364   26.4587 O   0  0  0  0  0  0  0  0  0  0  0  0
    7.8603   -5.4559   26.9461 C   0  0  2  0  0  0  0  0  0  0  0  0
    6.6996   -6.2310   26.2858 C   0  0  0  0  0  0  0  0  0  0  0  0
    5.9357   -6.7262   27.5177 C   0  0  0  0  0  0  0  0  0  0  0  0
    6.7964   -6.1545   28.6609 C   0  0  2  0  0  0  0  0  0  0  0  0
    6.5507   -4.6413   28.7516 C   0  0  0  0  0  0  0  0  0  0  0  0
    7.3152   -4.1357   27.5209 C   0  0  0  0  0  0  0  0  0  0  0  0
    8.1542   -6.2200   28.1496 N   0  0  0  0  0  0  0  0  0  0  0  0
  1  2  3  0
  2  3  1  0
  3  4  1  0
  4  5  2  0
  6  4  1  6
  6  7  1  0
  7  8  1  0
  9  8  1  6
  9 10  1  0
  9 12  1  0
 10 11  1  0
 11  6  1  0
 12  6  1  0
M  END
>  <Hit>  (278) 
Mpro-x0991_0

>  <Receptor>  (278) 
Mpro-x0305_0

>  <SCORE>  (278) 
-4.2381099999999998

>  <SCORE.norm>  (278) 
-0.35317599999999999

>  <SCORE.heavy>  (278) 
12

>  <OrigSmiles>  (278) 
C#CCC(=O)C12CCC(CC1)N2

>  <SuCOS_Score>  (278) 
0.38852627498898612

>  <Max_SuCOS_Score>  (278) 
0.38852627498898612

>  <Cum_SuCOS_Score>  (278) 
1.6599288893663295

>  <TransFSScore_50nM>  (278) 
0.0083759999999999998

>  <TransFSScore_1uM>  (278) 
0.44414599999999999

>  <TransFSScore_10nM>  (278) 
0.0089440000000000006

>  <TransFSScore_200nM>  (278) 
0.097464999999999996

>  <TransFSScore>  (278) 
0.13973274999999999

>  <FeatureSteinScore>  (278) 
0.4068967323337559

$$$$
C#CCC(=O)C1CC2CCC1N2
     RDKit          3D

 12 13  0  0  0  0  0  0  0  0999 V2000
    9.2537   -1.8036   21.5470 C   0  0  0  0  0  0  0  0  0  0  0  0
    8.8803   -2.8258   22.0657 C   0  0  0  0  0  0  0  0  0  0  0  0
    8.4252   -4.0716   22.7014 C   0  0  0  0  0  0  0  0  0  0  0  0
    9.2275   -4.3527   23.9475 C   0  0  0  0  0  0  0  0  0  0  0  0
   10.2848   -3.7592   24.1006 O   0  0  0  0  0  0  0  0  0  0  0  0
    8.8138   -5.3613   25.0096 C   0  0  2  0  0  0  0  0  0  0  0  0
    7.3115   -5.7107   25.1409 C   0  0  0  0  0  0  0  0  0  0  0  0
    7.0711   -5.4560   26.6426 C   0  0  2  0  0  0  0  0  0  0  0  0
    7.0014   -3.9339   26.8630 C   0  0  0  0  0  0  0  0  0  0  0  0
    8.4799   -3.5434   26.7424 C   0  0  0  0  0  0  0  0  0  0  0  0
    9.1366   -4.9122   26.4563 C   0  0  1  0  0  0  0  0  0  0  0  0
    8.3368   -5.8246   27.2586 N   0  0  0  0  0  0  0  0  0  0  0  0
  1  2  3  0
  2  3  1  0
  3  4  1  0
  4  5  2  0
  6  4  1  6
  6  7  1  0
  8  7  1  6
  8  9  1  0
  9 10  1  0
 11 10  1  6
 11 12  1  0
 11  6  1  0
 12  8  1  0
M  END
>  <Hit>  (279) 
Mpro-x0991_0

>  <Receptor>  (279) 
Mpro-x0874_0

>  <SCORE>  (279) 
-4.0816600000000003

>  <SCORE.norm>  (279) 
-0.340138

>  <SCORE.heavy>  (279) 
12

>  <OrigSmiles>  (279) 
C#CCC(=O)C1CC2CCC1N2

>  <SuCOS_Score>  (279) 
0.49524221434589044

>  <Max_SuCOS_Score>  (279) 
0.49524221434589044

>  <Cum_SuCOS_Score>  (279) 
2.1055438580771373

>  <TransFSScore_50nM>  (279) 
0.020775999999999999

>  <TransFSScore_1uM>  (279) 
0.34229999999999999

>  <TransFSScore_10nM>  (279) 
0.0030959999999999998

>  <TransFSScore_200nM>  (279) 
0.091446

>  <TransFSScore>  (279) 
0.11440449999999999

>  <FeatureSteinScore>  (279) 
0.32216717128516381

$$$$
C#CCC(=O)CC12CCC(CC1)N2
     RDKit          3D

 13 14  0  0  0  0  0  0  0  0999 V2000
    9.5724   -1.0452   25.4289 C   0  0  0  0  0  0  0  0  0  0  0  0
    9.4606   -2.0659   24.7972 C   0  0  0  0  0  0  0  0  0  0  0  0
    9.3261   -3.3066   24.0268 C   0  0  0  0  0  0  0  0  0  0  0  0
    8.2669   -4.1845   24.6319 C   0  0  0  0  0  0  0  0  0  0  0  0
    7.1036   -4.0734   24.2734 O   0  0  0  0  0  0  0  0  0  0  0  0
    8.6291   -5.1463   25.7354 C   0  0  0  0  0  0  0  0  0  0  0  0
    7.4456   -5.4951   26.6675 C   0  0  1  0  0  0  0  0  0  0  0  0
    6.7551   -4.2797   27.3300 C   0  0  0  0  0  0  0  0  0  0  0  0
    6.0438   -4.9504   28.5143 C   0  0  0  0  0  0  0  0  0  0  0  0
    6.4478   -6.4258   28.3215 C   0  0  1  0  0  0  0  0  0  0  0  0
    5.6448   -6.9885   27.1351 C   0  0  0  0  0  0  0  0  0  0  0  0
    6.3526   -6.3221   25.9484 C   0  0  0  0  0  0  0  0  0  0  0  0
    7.8040   -6.3392   27.8011 N   0  0  0  0  0  0  0  0  0  0  0  0
  1  2  3  0
  2  3  1  0
  3  4  1  0
  4  5  2  0
  4  6  1  0
  7  6  1  6
  7  8  1  0
  8  9  1  0
 10  9  1  6
 10 11  1  0
 10 13  1  0
 11 12  1  0
 12  7  1  0
 13  7  1  0
M  END
>  <Hit>  (280) 
Mpro-x0991_0

>  <Receptor>  (280) 
Mpro-x0874_0

>  <SCORE>  (280) 
-3.6782900000000001

>  <SCORE.norm>  (280) 
-0.282945

>  <SCORE.heavy>  (280) 
13

>  <OrigSmiles>  (280) 
C#CCC(=O)CC12CCC(CC1)N2

>  <SuCOS_Score>  (280) 
0.35659765306064228

>  <Max_SuCOS_Score>  (280) 
0.35659765306064228

>  <Cum_SuCOS_Score>  (280) 
1.8346138923174227

>  <TransFSScore_50nM>  (280) 
0.0097029999999999998

>  <TransFSScore_1uM>  (280) 
0.259855

>  <TransFSScore_10nM>  (280) 
0.0067039999999999999

>  <TransFSScore_200nM>  (280) 
0.104406

>  <TransFSScore>  (280) 
0.095167000000000002

>  <FeatureSteinScore>  (280) 
0.23685626808240967

$$$$
C#CCC(=O)N1C2CCC1CC2
     RDKit          3D

 12 13  0  0  0  0  0  0  0  0999 V2000
    9.3585   -2.6064   22.5555 C   0  0  0  0  0  0  0  0  0  0  0  0
    8.7685   -3.6463   22.7105 C   0  0  0  0  0  0  0  0  0  0  0  0
    8.0480   -4.9148   22.9002 C   0  0  0  0  0  0  0  0  0  0  0  0
    8.5129   -5.6032   24.1589 C   0  0  0  0  0  0  0  0  0  0  0  0
    9.5289   -6.2853   24.1157 O   0  0  0  0  0  0  0  0  0  0  0  0
    7.7164   -5.5320   25.3773 N   0  0  0  0  0  0  0  0  0  0  0  0
    7.5289   -4.1810   25.9099 C   0  0  2  0  0  0  0  0  0  0  0  0
    8.9393   -3.7390   26.3575 C   0  0  0  0  0  0  0  0  0  0  0  0
    9.5247   -5.0611   26.8682 C   0  0  0  0  0  0  0  0  0  0  0  0
    8.3568   -6.0401   26.5947 C   0  0  1  0  0  0  0  0  0  0  0  0
    7.2839   -5.7733   27.6708 C   0  0  0  0  0  0  0  0  0  0  0  0
    6.6978   -4.4350   27.1863 C   0  0  0  0  0  0  0  0  0  0  0  0
  1  2  3  0
  2  3  1  0
  3  4  1  0
  4  5  2  0
  4  6  1  0
  6  7  1  0
  7  8  1  1
  8  9  1  0
 10  9  1  1
 10 11  1  0
 10  6  1  0
 11 12  1  0
 12  7  1  0
M  END
>  <Hit>  (281) 
Mpro-x0991_0

>  <Receptor>  (281) 
Mpro-x0874_0

>  <SCORE>  (281) 
-3.5451800000000002

>  <SCORE.norm>  (281) 
-0.29543199999999997

>  <SCORE.heavy>  (281) 
12

>  <OrigSmiles>  (281) 
C#CCC(=O)N1C2CCC1CC2

>  <SuCOS_Score>  (281) 
0.5040679004899552

>  <Max_SuCOS_Score>  (281) 
0.5040679004899552

>  <Cum_SuCOS_Score>  (281) 
1.9200599285960613

>  <TransFSScore_50nM>  (281) 
0.0048729999999999997

>  <TransFSScore_1uM>  (281) 
0.089277999999999996

>  <TransFSScore_10nM>  (281) 
0.0036619999999999999

>  <TransFSScore_200nM>  (281) 
0.048231000000000003

>  <TransFSScore>  (281) 
0.036511000000000002

>  <FeatureSteinScore>  (281) 
0.32925528505737245

$$$$
C#CCC(=O)N1C2CCC1CNC2
     RDKit          3D

 13 14  0  0  0  0  0  0  0  0999 V2000
   11.0753   -2.5279   23.3261 C   0  0  0  0  0  0  0  0  0  0  0  0
   10.0039   -3.0354   23.5453 C   0  0  0  0  0  0  0  0  0  0  0  0
    8.6958   -3.6563   23.8148 C   0  0  0  0  0  0  0  0  0  0  0  0
    8.7166   -4.4963   25.0672 C   0  0  0  0  0  0  0  0  0  0  0  0
    8.8587   -5.7482   24.9874 O   0  0  0  0  0  0  0  0  0  0  0  0
    8.5417   -3.8863   26.3595 N   0  0  0  0  0  0  0  0  0  0  0  0
    7.4118   -4.0916   27.2429 C   0  0  2  0  0  0  0  0  0  0  0  0
    7.4829   -2.8871   28.1909 C   0  0  0  0  0  0  0  0  0  0  0  0
    8.9672   -2.4812   28.1805 C   0  0  0  0  0  0  0  0  0  0  0  0
    9.6281   -3.4869   27.2288 C   0  0  1  0  0  0  0  0  0  0  0  0
   10.0806   -4.7557   27.9931 C   0  0  0  0  0  0  0  0  0  0  0  0
    8.9634   -5.3798   28.7459 N   0  0  0  0  0  0  0  0  0  0  0  0
    7.6759   -5.4121   28.0074 C   0  0  0  0  0  0  0  0  0  0  0  0
  1  2  3  0
  2  3  1  0
  3  4  1  0
  4  5  2  0
  4  6  1  0
  6  7  1  0
  7  8  1  1
  8  9  1  0
 10  9  1  1
 10 11  1  0
 10  6  1  0
 11 12  1  0
 12 13  1  0
 13  7  1  0
M  END
>  <Hit>  (282) 
Mpro-x0991_0

>  <Receptor>  (282) 
Mpro-x0387_0

>  <SCORE>  (282) 
-4.5063800000000001

>  <SCORE.norm>  (282) 
-0.34664400000000001

>  <SCORE.heavy>  (282) 
13

>  <OrigSmiles>  (282) 
C#CCC(=O)N1C2CCC1CNC2

>  <SuCOS_Score>  (282) 
0.45857914688835177

>  <Max_SuCOS_Score>  (282) 
0.45857914688835177

>  <Cum_SuCOS_Score>  (282) 
2.1953487539017527

>  <TransFSScore_50nM>  (282) 
0.015169999999999999

>  <TransFSScore_1uM>  (282) 
0.372616

>  <TransFSScore_10nM>  (282) 
0.0054920000000000004

>  <TransFSScore_200nM>  (282) 
0.13626199999999999

>  <TransFSScore>  (282) 
0.132385

>  <FeatureSteinScore>  (282) 
0.35567885377944997

$$$$
C#CCC(=O)N1[C@H]2CC[C@@H]1CNC2
     RDKit          3D

 13 14  0  0  0  0  0  0  0  0999 V2000
    9.6381   -2.2545   21.8319 C   0  0  0  0  0  0  0  0  0  0  0  0
    8.6886   -2.9557   22.0777 C   0  0  0  0  0  0  0  0  0  0  0  0
    7.5279   -3.8106   22.3795 C   0  0  0  0  0  0  0  0  0  0  0  0
    7.9389   -5.1220   23.0005 C   0  0  0  0  0  0  0  0  0  0  0  0
    7.8564   -6.1912   22.3344 O   0  0  0  0  0  0  0  0  0  0  0  0
    8.4596   -5.1641   24.3421 N   0  0  0  0  0  0  0  0  0  0  0  0
    7.6681   -5.1352   25.5551 C   0  0  1  0  0  0  0  0  0  0  0  0
    8.6300   -5.6862   26.6163 C   0  0  0  0  0  0  0  0  0  0  0  0
   10.0302   -5.3670   26.0635 C   0  0  0  0  0  0  0  0  0  0  0  0
    9.7585   -4.6568   24.7310 C   0  0  2  0  0  0  0  0  0  0  0  0
    9.5996   -3.1306   24.9407 C   0  0  0  0  0  0  0  0  0  0  0  0
    8.5525   -2.8129   25.9441 N   0  0  0  0  0  0  0  0  0  0  0  0
    7.3311   -3.6496   25.8340 C   0  0  0  0  0  0  0  0  0  0  0  0
  1  2  3  0
  2  3  1  0
  3  4  1  0
  4  5  2  0
  4  6  1  0
  6  7  1  0
  7  8  1  1
  8  9  1  0
 10  9  1  1
 10 11  1  0
 10  6  1  0
 11 12  1  0
 12 13  1  0
 13  7  1  0
M  END
>  <Hit>  (283) 
Mpro-x0991_0

>  <Receptor>  (283) 
Mpro-x0874_0

>  <SCORE>  (283) 
-5.3784999999999998

>  <SCORE.norm>  (283) 
-0.41373100000000002

>  <SCORE.heavy>  (283) 
13

>  <OrigSmiles>  (283) 
C#CCC(=O)N1[C@H]2CC[C@@H]1CNC2

>  <SuCOS_Score>  (283) 
0.47282493149312599

>  <Max_SuCOS_Score>  (283) 
0.47282493149312599

>  <Cum_SuCOS_Score>  (283) 
2.2495121476451376

>  <TransFSScore_50nM>  (283) 
0.027154999999999999

>  <TransFSScore_1uM>  (283) 
0.435556

>  <TransFSScore_10nM>  (283) 
0.004006

>  <TransFSScore_200nM>  (283) 
0.14899200000000001

>  <TransFSScore>  (283) 
0.15392725000000002

>  <FeatureSteinScore>  (283) 
0.16796247069972856

$$$$
C#CCC(=O)NCc1cc(Cl)cc(Br)c1
     RDKit          3D

 15 15  0  0  0  0  0  0  0  0999 V2000
    7.3981    4.6748   21.8222 C   0  0  0  0  0  0  0  0  0  0  0  0
    7.9496    5.6489   22.2702 C   0  0  0  0  0  0  0  0  0  0  0  0
    8.6216    6.8306   22.8170 C   0  0  0  0  0  0  0  0  0  0  0  0
    9.9014    6.4219   23.4740 C   0  0  0  0  0  0  0  0  0  0  0  0
   10.0675    6.6444   24.7041 O   0  0  0  0  0  0  0  0  0  0  0  0
   10.9115    5.7403   22.7173 N   0  0  0  0  0  0  0  0  0  0  0  0
   12.1070    5.1745   23.3374 C   0  0  0  0  0  0  0  0  0  0  0  0
   11.8915    3.7172   23.6441 C   0  0  0  0  0  0  0  0  0  0  0  0
   10.7866    3.3038   24.4055 C   0  0  0  0  0  0  0  0  0  0  0  0
   10.5825    1.9426   24.6620 C   0  0  0  0  0  0  0  0  0  0  0  0
    9.2027    1.4290   25.6153 Cl  0  0  0  0  0  0  0  0  0  0  0  0
   11.4734    0.9890   24.1520 C   0  0  0  0  0  0  0  0  0  0  0  0
   12.5704    1.3968   23.3835 C   0  0  0  0  0  0  0  0  0  0  0  0
   13.7780    0.1040   22.6413 Br  0  0  0  0  0  0  0  0  0  0  0  0
   12.7799    2.7567   23.1348 C   0  0  0  0  0  0  0  0  0  0  0  0
  1  2  3  0
  2  3  1  0
  3  4  1  0
  4  5  2  0
  4  6  1  0
  6  7  1  0
  7  8  1  0
  8  9  2  0
  9 10  1  0
 10 11  1  0
 10 12  2  0
 12 13  1  0
 13 14  1  0
 13 15  2  0
 15  8  1  0
M  END
>  <Hit>  (284) 
Mpro-x0946_0

>  <Receptor>  (284) 
Mpro-x1249_0

>  <SCORE>  (284) 
-11.2659

>  <SCORE.norm>  (284) 
-0.751058

>  <SCORE.heavy>  (284) 
15

>  <OrigSmiles>  (284) 
C#CCC(=O)NCc1cc(Cl)cc(Br)c1

>  <SuCOS_Score>  (284) 
0.61251240650840644

>  <Max_SuCOS_Score>  (284) 
0.61251240650840644

>  <Cum_SuCOS_Score>  (284) 
3.5071712348323221

>  <TransFSScore_50nM>  (284) 
0.0044920000000000003

>  <TransFSScore_1uM>  (284) 
0.026502999999999999

>  <TransFSScore_10nM>  (284) 
0.0013179999999999999

>  <TransFSScore_200nM>  (284) 
0.003947

>  <TransFSScore>  (284) 
0.0090650000000000001

>  <FeatureSteinScore>  (284) 
0.54500601177608177

$$$$
C#CCC(=O)Nc1cc(Cl)cc(Br)c1
     RDKit          3D

 14 14  0  0  0  0  0  0  0  0999 V2000
   10.9679    7.4861   25.6050 C   0  0  0  0  0  0  0  0  0  0  0  0
   11.7829    6.7963   25.0450 C   0  0  0  0  0  0  0  0  0  0  0  0
   12.7733    5.9584   24.3640 C   0  0  0  0  0  0  0  0  0  0  0  0
   12.0962    4.7766   23.7442 C   0  0  0  0  0  0  0  0  0  0  0  0
   10.9001    4.8812   23.3590 O   0  0  0  0  0  0  0  0  0  0  0  0
   12.8123    3.5413   23.5851 N   0  0  0  0  0  0  0  0  0  0  0  0
   12.1981    2.2945   23.2168 C   0  0  0  0  0  0  0  0  0  0  0  0
   10.8003    2.1374   23.2208 C   0  0  0  0  0  0  0  0  0  0  0  0
   10.2320    0.9019   22.8879 C   0  0  0  0  0  0  0  0  0  0  0  0
    8.4884    0.7088   22.8993 Cl  0  0  0  0  0  0  0  0  0  0  0  0
   11.0522   -0.1831   22.5537 C   0  0  0  0  0  0  0  0  0  0  0  0
   12.4440   -0.0342   22.5559 C   0  0  0  0  0  0  0  0  0  0  0  0
   13.5839   -1.4991   22.0705 Br  0  0  0  0  0  0  0  0  0  0  0  0
   13.0122    1.1967   22.8985 C   0  0  0  0  0  0  0  0  0  0  0  0
  1  2  3  0
  2  3  1  0
  3  4  1  0
  4  5  2  0
  4  6  1  0
  6  7  1  0
  7  8  2  0
  8  9  1  0
  9 10  1  0
  9 11  2  0
 11 12  1  0
 12 13  1  0
 12 14  2  0
 14  7  1  0
M  END
>  <Hit>  (285) 
Mpro-x0946_0

>  <Receptor>  (285) 
Mpro-x0305_0

>  <SCORE>  (285) 
-10.5907

>  <SCORE.norm>  (285) 
-0.75648099999999996

>  <SCORE.heavy>  (285) 
14

>  <OrigSmiles>  (285) 
C#CCC(=O)Nc1cc(Cl)cc(Br)c1

>  <SuCOS_Score>  (285) 
0.40418608351329305

>  <Max_SuCOS_Score>  (285) 
0.40418608351329305

>  <Cum_SuCOS_Score>  (285) 
3.8369089962192935

>  <TransFSScore_50nM>  (285) 
0.010267999999999999

>  <TransFSScore_1uM>  (285) 
0.054686999999999999

>  <TransFSScore_10nM>  (285) 
0.0067600000000000004

>  <TransFSScore_200nM>  (285) 
0.0093849999999999992

>  <TransFSScore>  (285) 
0.020275000000000001

>  <FeatureSteinScore>  (285) 
0.2182863130597669

$$$$
C#CCC(=O)Nc1ccc(Br)cc1Cl
     RDKit          3D

 14 14  0  0  0  0  0  0  0  0999 V2000
    8.9123    6.7281   23.2644 C   0  0  0  0  0  0  0  0  0  0  0  0
   10.0745    6.5760   23.5468 C   0  0  0  0  0  0  0  0  0  0  0  0
   11.4870    6.3920   23.8898 C   0  0  0  0  0  0  0  0  0  0  0  0
   11.8020    4.9316   23.9726 C   0  0  0  0  0  0  0  0  0  0  0  0
   12.5624    4.5133   24.8876 O   0  0  0  0  0  0  0  0  0  0  0  0
   11.2383    4.0200   23.0162 N   0  0  0  0  0  0  0  0  0  0  0  0
   11.6394    2.6438   22.8952 C   0  0  0  0  0  0  0  0  0  0  0  0
   12.9090    2.2267   23.3326 C   0  0  0  0  0  0  0  0  0  0  0  0
   13.3101    0.8967   23.1835 C   0  0  0  0  0  0  0  0  0  0  0  0
   12.4565   -0.0326   22.5849 C   0  0  0  0  0  0  0  0  0  0  0  0
   13.0452   -1.8431   22.3489 Br  0  0  0  0  0  0  0  0  0  0  0  0
   11.1915    0.3689   22.1421 C   0  0  0  0  0  0  0  0  0  0  0  0
   10.7822    1.7019   22.2893 C   0  0  0  0  0  0  0  0  0  0  0  0
    9.1776    2.1555   21.7290 Cl  0  0  0  0  0  0  0  0  0  0  0  0
  1  2  3  0
  2  3  1  0
  3  4  1  0
  4  5  2  0
  4  6  1  0
  6  7  1  0
  7  8  2  0
  8  9  1  0
  9 10  2  0
 10 11  1  0
 10 12  1  0
 12 13  2  0
 13 14  1  0
 13  7  1  0
M  END
>  <Hit>  (286) 
Mpro-x0946_0

>  <Receptor>  (286) 
Mpro-x0305_0

>  <SCORE>  (286) 
-10.224500000000001

>  <SCORE.norm>  (286) 
-0.73032399999999997

>  <SCORE.heavy>  (286) 
14

>  <OrigSmiles>  (286) 
C#CCC(=O)Nc1ccc(Br)cc1Cl

>  <SuCOS_Score>  (286) 
0.41645349143520283

>  <Max_SuCOS_Score>  (286) 
0.41645349143520283

>  <Cum_SuCOS_Score>  (286) 
3.5394972878176394

>  <TransFSScore_50nM>  (286) 
0.0044920000000000003

>  <TransFSScore_1uM>  (286) 
0.020388

>  <TransFSScore_10nM>  (286) 
0.004483

>  <TransFSScore_200nM>  (286) 
0.0074949999999999999

>  <TransFSScore>  (286) 
0.0092145000000000005

>  <FeatureSteinScore>  (286) 
0.14249602188064897

$$$$
C#CCC(=O)Nc1ccc(Cl)cc1Br
     RDKit          3D

 14 14  0  0  0  0  0  0  0  0999 V2000
   12.7628    5.8781   24.7721 C   0  0  0  0  0  0  0  0  0  0  0  0
   13.0151    5.0025   23.9827 C   0  0  0  0  0  0  0  0  0  0  0  0
   13.3223    3.9387   23.0231 C   0  0  0  0  0  0  0  0  0  0  0  0
   12.2596    2.8868   23.0760 C   0  0  0  0  0  0  0  0  0  0  0  0
   11.0650    3.2241   23.2989 O   0  0  0  0  0  0  0  0  0  0  0  0
   12.6035    1.5072   22.8724 N   0  0  0  0  0  0  0  0  0  0  0  0
   11.6282    0.4616   22.7179 C   0  0  0  0  0  0  0  0  0  0  0  0
   10.2712    0.7159   22.9814 C   0  0  0  0  0  0  0  0  0  0  0  0
    9.3119   -0.2818   22.7969 C   0  0  0  0  0  0  0  0  0  0  0  0
    9.6999   -1.5469   22.3452 C   0  0  0  0  0  0  0  0  0  0  0  0
    8.4965   -2.8024   22.1161 Cl  0  0  0  0  0  0  0  0  0  0  0  0
   11.0474   -1.8102   22.0682 C   0  0  0  0  0  0  0  0  0  0  0  0
   12.0122   -0.8071   22.2419 C   0  0  0  0  0  0  0  0  0  0  0  0
   13.8541   -1.1839   21.8320 Br  0  0  0  0  0  0  0  0  0  0  0  0
  1  2  3  0
  2  3  1  0
  3  4  1  0
  4  5  2  0
  4  6  1  0
  6  7  1  0
  7  8  2  0
  8  9  1  0
  9 10  2  0
 10 11  1  0
 10 12  1  0
 12 13  2  0
 13 14  1  0
 13  7  1  0
M  END
>  <Hit>  (287) 
Mpro-x0946_0

>  <Receptor>  (287) 
Mpro-x0305_0

>  <SCORE>  (287) 
-10.4208

>  <SCORE.norm>  (287) 
-0.74434400000000001

>  <SCORE.heavy>  (287) 
14

>  <OrigSmiles>  (287) 
C#CCC(=O)Nc1ccc(Cl)cc1Br

>  <SuCOS_Score>  (287) 
0.29951578152625902

>  <Max_SuCOS_Score>  (287) 
0.3543891027063904

>  <Cum_SuCOS_Score>  (287) 
4.1969388327626609

>  <TransFSScore_50nM>  (287) 
0.0034280000000000001

>  <TransFSScore_1uM>  (287) 
0.021711000000000001

>  <TransFSScore_10nM>  (287) 
0.011475000000000001

>  <TransFSScore_200nM>  (287) 
0.021505

>  <TransFSScore>  (287) 
0.014529750000000001

>  <FeatureSteinScore>  (287) 
0.36151711386144841

$$$$
C#CCC(=O)[C@@H]1C[C@@H]2CC[C@H]1N2
     RDKit          3D

 12 13  0  0  0  0  0  0  0  0999 V2000
    9.4175   -2.0529   21.5915 C   0  0  0  0  0  0  0  0  0  0  0  0
    9.1869   -2.8894   22.4285 C   0  0  0  0  0  0  0  0  0  0  0  0
    8.9049   -3.9093   23.4497 C   0  0  0  0  0  0  0  0  0  0  0  0
    9.4215   -3.4637   24.7912 C   0  0  0  0  0  0  0  0  0  0  0  0
   10.2358   -2.5529   24.8438 O   0  0  0  0  0  0  0  0  0  0  0  0
    8.9674   -4.1743   26.0526 C   0  0  2  0  0  0  0  0  0  0  0  0
    8.8239   -5.7102   25.9515 C   0  0  0  0  0  0  0  0  0  0  0  0
    7.3773   -5.9116   26.4466 C   0  0  2  0  0  0  0  0  0  0  0  0
    6.4211   -5.4854   25.3171 C   0  0  0  0  0  0  0  0  0  0  0  0
    6.5285   -3.9567   25.3904 C   0  0  0  0  0  0  0  0  0  0  0  0
    7.5500   -3.7761   26.5350 C   0  0  1  0  0  0  0  0  0  0  0  0
    7.2081   -4.8621   27.4405 N   0  0  0  0  0  0  0  0  0  0  0  0
  1  2  3  0
  2  3  1  0
  3  4  1  0
  4  5  2  0
  6  4  1  6
  6  7  1  0
  8  7  1  6
  8  9  1  0
  9 10  1  0
 11 10  1  6
 11 12  1  0
 11  6  1  0
 12  8  1  0
M  END
>  <Hit>  (288) 
Mpro-x0991_0

>  <Receptor>  (288) 
Mpro-x0874_0

>  <SCORE>  (288) 
-2.2816700000000001

>  <SCORE.norm>  (288) 
-0.19014

>  <SCORE.heavy>  (288) 
12

>  <OrigSmiles>  (288) 
C#CCC(=O)[C@@H]1C[C@@H]2CC[C@H]1N2

>  <SuCOS_Score>  (288) 
0.44645147215066516

>  <Max_SuCOS_Score>  (288) 
0.44645147215066516

>  <Cum_SuCOS_Score>  (288) 
2.1426524108645721

>  <TransFSScore_50nM>  (288) 
0.054690000000000003

>  <TransFSScore_1uM>  (288) 
0.22084599999999999

>  <TransFSScore_10nM>  (288) 
0.0047460000000000002

>  <TransFSScore_200nM>  (288) 
0.054774999999999997

>  <TransFSScore>  (288) 
0.083764250000000012

>  <FeatureSteinScore>  (288) 
0.44633426102909673

$$$$
C#CCC(=O)c1cc(Cl)cc(Br)c1
     RDKit          3D

 13 13  0  0  0  0  0  0  0  0999 V2000
    9.5051    6.1603   22.7485 C   0  0  0  0  0  0  0  0  0  0  0  0
   10.5965    6.0732   23.2530 C   0  0  0  0  0  0  0  0  0  0  0  0
   11.9239    5.9648   23.8667 C   0  0  0  0  0  0  0  0  0  0  0  0
   12.7023    4.8500   23.2262 C   0  0  0  0  0  0  0  0  0  0  0  0
   13.6836    5.1573   22.4954 O   0  0  0  0  0  0  0  0  0  0  0  0
   12.3720    3.4126   23.4433 C   0  0  0  0  0  0  0  0  0  0  0  0
   11.2677    3.0208   24.2265 C   0  0  0  0  0  0  0  0  0  0  0  0
   10.9844    1.6635   24.4203 C   0  0  0  0  0  0  0  0  0  0  0  0
    9.6110    1.1879   25.4029 Cl  0  0  0  0  0  0  0  0  0  0  0  0
   11.7921    0.6841   23.8319 C   0  0  0  0  0  0  0  0  0  0  0  0
   12.8869    1.0608   23.0477 C   0  0  0  0  0  0  0  0  0  0  0  0
   13.9844   -0.2664   22.2013 Br  0  0  0  0  0  0  0  0  0  0  0  0
   13.1781    2.4152   22.8606 C   0  0  0  0  0  0  0  0  0  0  0  0
  1  2  3  0
  2  3  1  0
  3  4  1  0
  4  5  2  0
  4  6  1  0
  6  7  2  0
  7  8  1  0
  8  9  1  0
  8 10  2  0
 10 11  1  0
 11 12  1  0
 11 13  2  0
 13  6  1  0
M  END
>  <Hit>  (289) 
Mpro-x0946_0

>  <Receptor>  (289) 
Mpro-x0874_0

>  <SCORE>  (289) 
-8.2327600000000007

>  <SCORE.norm>  (289) 
-0.63328899999999999

>  <SCORE.heavy>  (289) 
13

>  <OrigSmiles>  (289) 
C#CCC(=O)c1cc(Cl)cc(Br)c1

>  <SuCOS_Score>  (289) 
0.62626803643899243

>  <Max_SuCOS_Score>  (289) 
0.62626803643899243

>  <Cum_SuCOS_Score>  (289) 
3.6212091877858037

>  <TransFSScore_50nM>  (289) 
0.060061999999999997

>  <TransFSScore_1uM>  (289) 
0.036028999999999999

>  <TransFSScore_10nM>  (289) 
0.0033609999999999998

>  <TransFSScore_200nM>  (289) 
0.033790000000000001

>  <TransFSScore>  (289) 
0.0333105

>  <FeatureSteinScore>  (289) 
0.48619702086941091

$$$$
C#CCC(=O)c1ccc(Cl)cc1Br
     RDKit          3D

 13 13  0  0  0  0  0  0  0  0999 V2000
    7.5861    0.3862   18.3467 C   0  0  0  0  0  0  0  0  0  0  0  0
    7.4047   -0.2935   19.3258 C   0  0  0  0  0  0  0  0  0  0  0  0
    7.1822   -1.1198   20.5163 C   0  0  0  0  0  0  0  0  0  0  0  0
    8.4266   -1.1651   21.3550 C   0  0  0  0  0  0  0  0  0  0  0  0
    8.9340   -2.2885   21.6183 O   0  0  0  0  0  0  0  0  0  0  0  0
    9.0895    0.0777   21.8278 C   0  0  0  0  0  0  0  0  0  0  0  0
    8.3392    1.2660   21.9224 C   0  0  0  0  0  0  0  0  0  0  0  0
    8.9365    2.4593   22.3350 C   0  0  0  0  0  0  0  0  0  0  0  0
   10.2904    2.4797   22.6737 C   0  0  0  0  0  0  0  0  0  0  0  0
   11.0395    3.9759   23.2006 Cl  0  0  0  0  0  0  0  0  0  0  0  0
   11.0496    1.3087   22.5928 C   0  0  0  0  0  0  0  0  0  0  0  0
   10.4645    0.1098   22.1632 C   0  0  0  0  0  0  0  0  0  0  0  0
   11.5890   -1.4520   22.0679 Br  0  0  0  0  0  0  0  0  0  0  0  0
  1  2  3  0
  2  3  1  0
  3  4  1  0
  4  5  2  0
  4  6  1  0
  6  7  2  0
  7  8  1  0
  8  9  2  0
  9 10  1  0
  9 11  1  0
 11 12  2  0
 12 13  1  0
 12  6  1  0
M  END
>  <Hit>  (290) 
Mpro-x0946_0

>  <Receptor>  (290) 
Mpro-x0387_0

>  <SCORE>  (290) 
-5.6444400000000003

>  <SCORE.norm>  (290) 
-0.43418800000000002

>  <SCORE.heavy>  (290) 
13

>  <OrigSmiles>  (290) 
C#CCC(=O)c1ccc(Cl)cc1Br

>  <SuCOS_Score>  (290) 
0.16865446827378944

>  <Max_SuCOS_Score>  (290) 
0.33810239450719992

>  <Cum_SuCOS_Score>  (290) 
3.7928043714248911

>  <TransFSScore_50nM>  (290) 
0.022440000000000002

>  <TransFSScore_1uM>  (290) 
0.017786

>  <TransFSScore_10nM>  (290) 
0.0032239999999999999

>  <TransFSScore_200nM>  (290) 
0.084182000000000007

>  <TransFSScore>  (290) 
0.031907999999999999

>  <FeatureSteinScore>  (290) 
0.28581579917644584

$$$$
C#CCC(C(C)=O)C(=O)c1c[nH]c2ccccc12
     RDKit          3D

 18 19  0  0  0  0  0  0  0  0999 V2000
   13.8138    6.0142   21.9957 C   0  0  0  0  0  0  0  0  0  0  0  0
   13.2798    5.7525   23.0445 C   0  0  0  0  0  0  0  0  0  0  0  0
   12.6285    5.4342   24.3258 C   0  0  0  0  0  0  0  0  0  0  0  0
   11.4614    4.4296   24.1872 C   0  0  1  0  0  0  0  0  0  0  0  0
   10.2778    5.0468   23.4663 C   0  0  0  0  0  0  0  0  0  0  0  0
    8.9273    4.3928   23.4844 C   0  0  0  0  0  0  0  0  0  0  0  0
   10.4198    6.0864   22.8392 O   0  0  0  0  0  0  0  0  0  0  0  0
   11.8563    3.1199   23.5370 C   0  0  0  0  0  0  0  0  0  0  0  0
   12.6143    3.0985   22.5294 O   0  0  0  0  0  0  0  0  0  0  0  0
   11.2912    1.8526   24.0430 C   0  0  0  0  0  0  0  0  0  0  0  0
   10.4258    1.6872   25.1230 C   0  0  0  0  0  0  0  0  0  0  0  0
   10.0729    0.3857   25.2418 N   0  0  0  0  0  0  0  0  0  0  0  0
   10.6936   -0.2707   24.2416 C   0  0  0  0  0  0  0  0  0  0  0  0
   10.6151   -1.6331   23.9297 C   0  0  0  0  0  0  0  0  0  0  0  0
   11.3346   -2.1011   22.8129 C   0  0  0  0  0  0  0  0  0  0  0  0
   12.1018   -1.2090   22.0353 C   0  0  0  0  0  0  0  0  0  0  0  0
   12.1591    0.1560   22.3688 C   0  0  0  0  0  0  0  0  0  0  0  0
   11.4476    0.5923   23.4904 C   0  0  0  0  0  0  0  0  0  0  0  0
  1  2  3  0
  2  3  1  0
  4  3  1  6
  4  5  1  0
  4  8  1  0
  5  6  1  0
  5  7  2  0
  8  9  2  0
  8 10  1  0
 10 11  2  0
 11 12  1  0
 12 13  1  0
 13 14  2  0
 14 15  1  0
 15 16  2  0
 16 17  1  0
 17 18  2  0
 18 10  1  0
 18 13  1  0
M  END
>  <Hit>  (291) 
Mpro-x0104_0

>  <Receptor>  (291) 
Mpro-x1249_0

>  <SCORE>  (291) 
-10.020099999999999

>  <SCORE.norm>  (291) 
-0.55666899999999997

>  <SCORE.heavy>  (291) 
18

>  <OrigSmiles>  (291) 
C#CCC(C(C)=O)C(=O)c1c[nH]c2ccccc12

>  <SuCOS_Score>  (291) 
0.49922784170475099

>  <Max_SuCOS_Score>  (291) 
0.49922784170475099

>  <Cum_SuCOS_Score>  (291) 
4.7431669577863795

>  <TransFSScore_50nM>  (291) 
0.15843099999999999

>  <TransFSScore_1uM>  (291) 
0.034500000000000003

>  <TransFSScore_10nM>  (291) 
0.009783

>  <TransFSScore_200nM>  (291) 
0.299566

>  <TransFSScore>  (291) 
0.12557000000000001

>  <FeatureSteinScore>  (291) 
0.47327286218699549

$$$$
C#CCC(C)(C)Nc1nccc(C)c1C#N
     RDKit          3D

 16 16  0  0  0  0  0  0  0  0999 V2000
   10.0225   -4.2659   27.6481 C   0  0  0  0  0  0  0  0  0  0  0  0
    9.4222   -3.2298   27.5012 C   0  0  0  0  0  0  0  0  0  0  0  0
    8.6915   -1.9574   27.3584 C   0  0  0  0  0  0  0  0  0  0  0  0
    9.5848   -0.6771   27.4601 C   0  0  0  0  0  0  0  0  0  0  0  0
   10.2419   -0.5823   28.8521 C   0  0  0  0  0  0  0  0  0  0  0  0
    8.6388    0.5370   27.3191 C   0  0  0  0  0  0  0  0  0  0  0  0
   10.6498   -0.4679   26.4628 N   0  0  0  0  0  0  0  0  0  0  0  0
   10.9450   -1.1343   25.2291 C   0  0  0  0  0  0  0  0  0  0  0  0
    9.9950   -1.9807   24.7426 N   0  0  0  0  0  0  0  0  0  0  0  0
   10.0609   -2.5060   23.4968 C   0  0  0  0  0  0  0  0  0  0  0  0
   11.1654   -2.2504   22.6946 C   0  0  0  0  0  0  0  0  0  0  0  0
   12.1803   -1.4189   23.1638 C   0  0  0  0  0  0  0  0  0  0  0  0
   13.3382   -1.1120   22.2477 C   0  0  0  0  0  0  0  0  0  0  0  0
   11.9847   -0.7236   24.3657 C   0  0  0  0  0  0  0  0  0  0  0  0
   12.3336    0.6747   24.2652 C   0  0  0  0  0  0  0  0  0  0  0  0
   12.6045    1.7890   24.1105 N   0  0  0  0  0  0  0  0  0  0  0  0
  1  2  3  0
  2  3  1  0
  3  4  1  0
  4  5  1  0
  4  6  1  0
  4  7  1  0
  7  8  1  0
  8  9  2  0
  9 10  1  0
 10 11  2  0
 11 12  1  0
 12 13  1  0
 12 14  2  0
 14 15  1  0
 14  8  1  0
 15 16  3  0
M  END
>  <Hit>  (292) 
Mpro-x0305_0

>  <Receptor>  (292) 
Mpro-x0387_0

>  <SCORE>  (292) 
-10.3506

>  <SCORE.norm>  (292) 
-0.64691500000000002

>  <SCORE.heavy>  (292) 
16

>  <OrigSmiles>  (292) 
C#CCC(C)(C)Nc1nccc(C)c1C#N

>  <SuCOS_Score>  (292) 
0.5206787700837614

>  <Max_SuCOS_Score>  (292) 
0.5206787700837614

>  <Cum_SuCOS_Score>  (292) 
4.1195062219598091

>  <TransFSScore_50nM>  (292) 
0.000408

>  <TransFSScore_1uM>  (292) 
0.016069

>  <TransFSScore_10nM>  (292) 
0.0015820000000000001

>  <TransFSScore_200nM>  (292) 
0.0057409999999999996

>  <TransFSScore>  (292) 
0.0059499999999999996

>  <FeatureSteinScore>  (292) 
0.25888359475337586

$$$$
C#CCC(C)NC(=O)C12CCC(CC1)N2
     RDKit          3D

 15 16  0  0  0  0  0  0  0  0999 V2000
    9.1108   -2.4227   22.1108 C   0  0  0  0  0  0  0  0  0  0  0  0
    9.0186   -3.3098   22.9219 C   0  0  0  0  0  0  0  0  0  0  0  0
    8.9048   -4.3926   23.9128 C   0  0  0  0  0  0  0  0  0  0  0  0
    9.6695   -4.0492   25.2157 C   0  0  2  0  0  0  0  0  0  0  0  0
    9.8459   -5.3034   26.0824 C   0  0  0  0  0  0  0  0  0  0  0  0
    8.9590   -3.0211   25.9801 N   0  0  0  0  0  0  0  0  0  0  0  0
    9.0751   -1.6231   25.6699 C   0  0  0  0  0  0  0  0  0  0  0  0
    9.9263   -1.2377   24.8223 O   0  0  0  0  0  0  0  0  0  0  0  0
    8.2236   -0.6019   26.3926 C   0  0  2  0  0  0  0  0  0  0  0  0
    6.7962   -1.0911   26.7409 C   0  0  0  0  0  0  0  0  0  0  0  0
    6.4187   -0.1344   27.8798 C   0  0  0  0  0  0  0  0  0  0  0  0
    7.6910    0.7262   27.9883 C   0  0  2  0  0  0  0  0  0  0  0  0
    7.7207    1.6904   26.7858 C   0  0  0  0  0  0  0  0  0  0  0  0
    8.1002    0.7407   25.6402 C   0  0  0  0  0  0  0  0  0  0  0  0
    8.7610   -0.2139   27.6910 N   0  0  0  0  0  0  0  0  0  0  0  0
  1  2  3  0
  2  3  1  0
  3  4  1  0
  4  5  1  1
  4  6  1  0
  6  7  1  0
  7  8  2  0
  9  7  1  6
  9 10  1  0
 10 11  1  0
 12 11  1  6
 12 13  1  0
 12 15  1  0
 13 14  1  0
 14  9  1  0
 15  9  1  0
M  END
>  <Hit>  (293) 
Mpro-x0991_0

>  <Receptor>  (293) 
Mpro-x1249_0

>  <SCORE>  (293) 
-4.1913600000000004

>  <SCORE.norm>  (293) 
-0.27942400000000001

>  <SCORE.heavy>  (293) 
15

>  <OrigSmiles>  (293) 
C#CCC(C)NC(=O)C12CCC(CC1)N2

>  <SuCOS_Score>  (293) 
0.41170794760139245

>  <Max_SuCOS_Score>  (293) 
0.41170794760139245

>  <Cum_SuCOS_Score>  (293) 
2.495417517340639

>  <TransFSScore_50nM>  (293) 
0.0032729999999999999

>  <TransFSScore_1uM>  (293) 
0.086282999999999999

>  <TransFSScore_10nM>  (293) 
0.0095309999999999995

>  <TransFSScore_200nM>  (293) 
0.0086320000000000008

>  <TransFSScore>  (293) 
0.026929749999999999

>  <FeatureSteinScore>  (293) 
0.34440696443610491

$$$$
C#CCC(C)NC(=O)C1C2CNC1C2
     RDKit          3D

 14 15  0  0  0  0  0  0  0  0999 V2000
   10.7816   -2.0605   23.0504 C   0  0  0  0  0  0  0  0  0  0  0  0
    9.9281   -2.9048   23.1608 C   0  0  0  0  0  0  0  0  0  0  0  0
    8.8854   -3.9370   23.2998 C   0  0  0  0  0  0  0  0  0  0  0  0
    8.6747   -4.4325   24.7551 C   0  0  1  0  0  0  0  0  0  0  0  0
    9.8132   -5.3021   25.3025 C   0  0  0  0  0  0  0  0  0  0  0  0
    8.4244   -3.3247   25.6694 N   0  0  0  0  0  0  0  0  0  0  0  0
    7.4889   -2.2719   25.4117 C   0  0  0  0  0  0  0  0  0  0  0  0
    6.8238   -2.2572   24.3407 O   0  0  0  0  0  0  0  0  0  0  0  0
    7.3419   -1.1415   26.4006 C   0  0  2  0  0  0  0  0  0  0  0  0
    7.4241    0.2611   25.7997 C   0  0  1  0  0  0  0  0  0  0  0  0
    7.2624    1.0804   27.0827 C   0  0  0  0  0  0  0  0  0  0  0  0
    8.1727    0.3474   27.9892 N   0  0  0  0  0  0  0  0  0  0  0  0
    8.6474   -0.6605   27.0309 C   0  0  2  0  0  0  0  0  0  0  0  0
    8.9408    0.1580   25.7762 C   0  0  0  0  0  0  0  0  0  0  0  0
  1  2  3  0
  2  3  1  0
  3  4  1  0
  4  5  1  1
  4  6  1  0
  6  7  1  0
  7  8  2  0
  9  7  1  6
  9 10  1  0
 10 11  1  1
 11 12  1  0
 12 13  1  0
 13 14  1  6
 13  9  1  0
 14 10  1  0
M  END
>  <Hit>  (294) 
Mpro-x0991_0

>  <Receptor>  (294) 
Mpro-x0874_0

>  <SCORE>  (294) 
-5.0518900000000002

>  <SCORE.norm>  (294) 
-0.36084899999999998

>  <SCORE.heavy>  (294) 
14

>  <OrigSmiles>  (294) 
C#CCC(C)NC(=O)C1C2CNC1C2

>  <SuCOS_Score>  (294) 
0.39521791965762121

>  <Max_SuCOS_Score>  (294) 
0.39521791965762121

>  <Cum_SuCOS_Score>  (294) 
2.6590135772262142

>  <TransFSScore_50nM>  (294) 
0.0028509999999999998

>  <TransFSScore_1uM>  (294) 
0.047472

>  <TransFSScore_10nM>  (294) 
0.0079080000000000001

>  <TransFSScore_200nM>  (294) 
0.029825000000000001

>  <TransFSScore>  (294) 
0.022013999999999999

>  <FeatureSteinScore>  (294) 
0.26760565062550179

$$$$
C#CCC(C)NC(=O)C1CC2CCC1N2
     RDKit          3D

 15 16  0  0  0  0  0  0  0  0999 V2000
   10.6738   -2.0943   22.9277 C   0  0  0  0  0  0  0  0  0  0  0  0
    9.8451   -2.9582   23.0701 C   0  0  0  0  0  0  0  0  0  0  0  0
    8.8320   -4.0153   23.2409 C   0  0  0  0  0  0  0  0  0  0  0  0
    8.6607   -4.4990   24.7027 C   0  0  1  0  0  0  0  0  0  0  0  0
    9.7989   -5.3995   25.2089 C   0  0  0  0  0  0  0  0  0  0  0  0
    8.4650   -3.3665   25.6003 N   0  0  0  0  0  0  0  0  0  0  0  0
    7.5175   -2.3141   25.3785 C   0  0  0  0  0  0  0  0  0  0  0  0
    6.8389   -2.2886   24.3165 O   0  0  0  0  0  0  0  0  0  0  0  0
    7.2828   -1.2498   26.4230 C   0  0  2  0  0  0  0  0  0  0  0  0
    6.5743    0.0299   25.9289 C   0  0  0  0  0  0  0  0  0  0  0  0
    7.5619    1.1126   26.3921 C   0  0  2  0  0  0  0  0  0  0  0  0
    8.7798    1.1036   25.4495 C   0  0  0  0  0  0  0  0  0  0  0  0
    9.5203   -0.1478   25.9261 C   0  0  0  0  0  0  0  0  0  0  0  0
    8.5728   -0.6589   27.0324 C   0  0  1  0  0  0  0  0  0  0  0  0
    8.0722    0.5628   27.6376 N   0  0  0  0  0  0  0  0  0  0  0  0
  1  2  3  0
  2  3  1  0
  3  4  1  0
  4  5  1  1
  4  6  1  0
  6  7  1  0
  7  8  2  0
  9  7  1  6
  9 10  1  0
 11 10  1  6
 11 12  1  0
 12 13  1  0
 14 13  1  6
 14 15  1  0
 14  9  1  0
 15 11  1  0
M  END
>  <Hit>  (295) 
Mpro-x0991_0

>  <Receptor>  (295) 
Mpro-x0874_0

>  <SCORE>  (295) 
-5.1770300000000002

>  <SCORE.norm>  (295) 
-0.34513500000000003

>  <SCORE.heavy>  (295) 
15

>  <OrigSmiles>  (295) 
C#CCC(C)NC(=O)C1CC2CCC1N2

>  <SuCOS_Score>  (295) 
0.40795594844744892

>  <Max_SuCOS_Score>  (295) 
0.40795594844744892

>  <Cum_SuCOS_Score>  (295) 
2.8008824139805544

>  <TransFSScore_50nM>  (295) 
0.0056540000000000002

>  <TransFSScore_1uM>  (295) 
0.043494999999999999

>  <TransFSScore_10nM>  (295) 
0.007868

>  <TransFSScore_200nM>  (295) 
0.023109999999999999

>  <TransFSScore>  (295) 
0.020031750000000001

>  <FeatureSteinScore>  (295) 
0.31675752522390083

$$$$
C#CCC(C)NC(=O)[C@@H]1C[C@@H]2CC[C@H]1N2
     RDKit          3D

 15 16  0  0  0  0  0  0  0  0999 V2000
   10.6192   -3.1647   23.9949 C   0  0  0  0  0  0  0  0  0  0  0  0
   10.3516   -4.0382   24.7816 C   0  0  0  0  0  0  0  0  0  0  0  0
   10.0227   -5.1079   25.7399 C   0  0  0  0  0  0  0  0  0  0  0  0
    8.6463   -4.9327   26.4346 C   0  0  1  0  0  0  0  0  0  0  0  0
    8.3044   -6.0405   27.4445 C   0  0  0  0  0  0  0  0  0  0  0  0
    8.5159   -3.6112   27.0504 N   0  0  0  0  0  0  0  0  0  0  0  0
    7.7835   -2.5411   26.4334 C   0  0  0  0  0  0  0  0  0  0  0  0
    7.1050   -2.7625   25.3931 O   0  0  0  0  0  0  0  0  0  0  0  0
    7.7635   -1.1720   27.0779 C   0  0  2  0  0  0  0  0  0  0  0  0
    7.0038   -0.0800   26.2897 C   0  0  0  0  0  0  0  0  0  0  0  0
    8.0714    1.0290   26.1962 C   0  0  2  0  0  0  0  0  0  0  0  0
    9.0994    0.6140   25.1278 C   0  0  0  0  0  0  0  0  0  0  0  0
    9.8844   -0.4741   25.8708 C   0  0  0  0  0  0  0  0  0  0  0  0
    9.1543   -0.5036   27.2323 C   0  0  1  0  0  0  0  0  0  0  0  0
    8.8120    0.8946   27.4411 N   0  0  0  0  0  0  0  0  0  0  0  0
  1  2  3  0
  2  3  1  0
  3  4  1  0
  4  5  1  1
  4  6  1  0
  6  7  1  0
  7  8  2  0
  9  7  1  6
  9 10  1  0
 11 10  1  1
 11 12  1  0
 12 13  1  0
 14 13  1  6
 14 15  1  0
 14  9  1  0
 15 11  1  0
M  END
>  <Hit>  (296) 
Mpro-x0991_0

>  <Receptor>  (296) 
Mpro-x0305_0

>  <SCORE>  (296) 
-5.5918700000000001

>  <SCORE.norm>  (296) 
-0.37279099999999998

>  <SCORE.heavy>  (296) 
15

>  <OrigSmiles>  (296) 
C#CCC(C)NC(=O)[C@@H]1C[C@@H]2CC[C@H]1N2

>  <SuCOS_Score>  (296) 
0.3133357561976185

>  <Max_SuCOS_Score>  (296) 
0.3133357561976185

>  <Cum_SuCOS_Score>  (296) 
2.3274432773106595

>  <TransFSScore_50nM>  (296) 
0.0046839999999999998

>  <TransFSScore_1uM>  (296) 
0.072412000000000004

>  <TransFSScore_10nM>  (296) 
0.030991999999999999

>  <TransFSScore_200nM>  (296) 
0.043809000000000001

>  <TransFSScore>  (296) 
0.037974250000000001

>  <FeatureSteinScore>  (296) 
0.20457812044580428

$$$$
C#CCC(C)NC(=O)[C@H]1[C@@H]2C[C@H]1CN2
     RDKit          3D

 14 15  0  0  0  0  0  0  0  0999 V2000
    8.8896   -2.5452   22.0815 C   0  0  0  0  0  0  0  0  0  0  0  0
    8.8346   -3.4483   22.8783 C   0  0  0  0  0  0  0  0  0  0  0  0
    8.7672   -4.5502   23.8529 C   0  0  0  0  0  0  0  0  0  0  0  0
    9.6949   -4.2909   25.0641 C   0  0  2  0  0  0  0  0  0  0  0  0
    9.7591   -5.5283   25.9674 C   0  0  0  0  0  0  0  0  0  0  0  0
    9.2027   -3.1579   25.8411 N   0  0  0  0  0  0  0  0  0  0  0  0
    9.4870   -1.7902   25.5289 C   0  0  0  0  0  0  0  0  0  0  0  0
   10.2329   -1.4977   24.5557 O   0  0  0  0  0  0  0  0  0  0  0  0
    8.9522   -0.6947   26.4194 C   0  0  1  0  0  0  0  0  0  0  0  0
    8.8062    0.7132   25.8282 C   0  0  2  0  0  0  0  0  0  0  0  0
    7.6803    0.9530   26.8315 C   0  0  0  0  0  0  0  0  0  0  0  0
    7.4360   -0.5225   26.5348 C   0  0  1  0  0  0  0  0  0  0  0  0
    7.0180   -0.3948   25.0619 C   0  0  0  0  0  0  0  0  0  0  0  0
    8.0670    0.5222   24.5685 N   0  0  0  0  0  0  0  0  0  0  0  0
  1  2  3  0
  2  3  1  0
  3  4  1  0
  4  5  1  1
  4  6  1  0
  6  7  1  0
  7  8  2  0
  9  7  1  6
  9 10  1  0
 10 11  1  1
 12 11  1  1
 12 13  1  0
 12  9  1  0
 13 14  1  0
 14 10  1  0
M  END
>  <Hit>  (297) 
Mpro-x0991_0

>  <Receptor>  (297) 
Mpro-x0874_0

>  <SCORE>  (297) 
-4.5086899999999996

>  <SCORE.norm>  (297) 
-0.32204899999999997

>  <SCORE.heavy>  (297) 
14

>  <OrigSmiles>  (297) 
C#CCC(C)NC(=O)[C@H]1[C@@H]2C[C@H]1CN2

>  <SuCOS_Score>  (297) 
0.45294474015048686

>  <Max_SuCOS_Score>  (297) 
0.45294474015048686

>  <Cum_SuCOS_Score>  (297) 
2.7019031137811886

>  <TransFSScore_50nM>  (297) 
0.021454000000000001

>  <TransFSScore_1uM>  (297) 
0.066823999999999995

>  <TransFSScore_10nM>  (297) 
0.010132

>  <TransFSScore_200nM>  (297) 
0.034629

>  <TransFSScore>  (297) 
0.033259749999999998

>  <FeatureSteinScore>  (297) 
0.41085183206581261

$$$$
C#CCC(C)NCc1ccc(Cl)cc1Br
     RDKit          3D

 15 15  0  0  0  0  0  0  0  0999 V2000
    6.7580    1.2235   19.9931 C   0  0  0  0  0  0  0  0  0  0  0  0
    7.6150    0.3773   20.0452 C   0  0  0  0  0  0  0  0  0  0  0  0
    8.6595   -0.6559   20.1094 C   0  0  0  0  0  0  0  0  0  0  0  0
    8.8035   -1.2648   21.5236 C   0  0  1  0  0  0  0  0  0  0  0  0
    7.5168   -2.0120   21.9292 C   0  0  0  0  0  0  0  0  0  0  0  0
    9.9997   -2.1370   21.6051 N   0  0  0  0  0  0  0  0  0  0  0  0
   10.7210   -1.9845   22.8810 C   0  0  0  0  0  0  0  0  0  0  0  0
   11.1468   -0.5473   23.0806 C   0  0  0  0  0  0  0  0  0  0  0  0
   10.3229    0.3120   23.8297 C   0  0  0  0  0  0  0  0  0  0  0  0
   10.6968    1.6390   24.0568 C   0  0  0  0  0  0  0  0  0  0  0  0
   11.9093    2.1166   23.5539 C   0  0  0  0  0  0  0  0  0  0  0  0
   12.3844    3.7797   23.8460 Cl  0  0  0  0  0  0  0  0  0  0  0  0
   12.7453    1.2697   22.8192 C   0  0  0  0  0  0  0  0  0  0  0  0
   12.3726   -0.0585   22.5755 C   0  0  0  0  0  0  0  0  0  0  0  0
   13.5570   -1.1572   21.5268 Br  0  0  0  0  0  0  0  0  0  0  0  0
  1  2  3  0
  2  3  1  0
  3  4  1  0
  4  5  1  6
  4  6  1  0
  6  7  1  0
  7  8  1  0
  8  9  2  0
  9 10  1  0
 10 11  2  0
 11 12  1  0
 11 13  1  0
 13 14  2  0
 14 15  1  0
 14  8  1  0
M  END
>  <Hit>  (298) 
Mpro-x0946_0

>  <Receptor>  (298) 
Mpro-x1249_0

>  <SCORE>  (298) 
-11.6099

>  <SCORE.norm>  (298) 
-0.77399600000000002

>  <SCORE.heavy>  (298) 
15

>  <OrigSmiles>  (298) 
C#CCC(C)NCc1ccc(Cl)cc1Br

>  <SuCOS_Score>  (298) 
0.32330119020110148

>  <Max_SuCOS_Score>  (298) 
0.40445957689736844

>  <Cum_SuCOS_Score>  (298) 
5.4465022742200624

>  <TransFSScore_50nM>  (298) 
0.00050100000000000003

>  <TransFSScore_1uM>  (298) 
0.017448000000000002

>  <TransFSScore_10nM>  (298) 
0.00073499999999999998

>  <TransFSScore_200nM>  (298) 
0.010043

>  <TransFSScore>  (298) 
0.0071817500000000006

>  <FeatureSteinScore>  (298) 
0.5190167720566552

$$$$
C#CCC(C)NS(=O)(=O)c1ccc(Br)cc1Cl
     RDKit          3D

 17 17  0  0  0  0  0  0  0  0999 V2000
    8.0838    2.8859   21.7923 C   0  0  0  0  0  0  0  0  0  0  0  0
    7.9322    4.0788   21.8764 C   0  0  0  0  0  0  0  0  0  0  0  0
    7.7472    5.5339   21.9804 C   0  0  0  0  0  0  0  0  0  0  0  0
    8.5243    6.1604   23.1650 C   0  0  2  0  0  0  0  0  0  0  0  0
    7.9622    7.5398   23.5278 C   0  0  0  0  0  0  0  0  0  0  0  0
    9.9737    6.2791   22.9184 N   0  0  0  0  0  0  0  0  0  0  0  0
   10.9274    5.7191   24.2448 S   0  0  0  0  0  0  0  0  0  0  0  0
   10.1513    5.8465   25.5196 O   0  0  0  0  0  0  0  0  0  0  0  0
   12.1960    6.5102   24.3326 O   0  0  0  0  0  0  0  0  0  0  0  0
   11.2544    4.0309   23.9411 C   0  0  0  0  0  0  0  0  0  0  0  0
   10.2281    3.1024   24.1873 C   0  0  0  0  0  0  0  0  0  0  0  0
   10.4126    1.7498   23.8855 C   0  0  0  0  0  0  0  0  0  0  0  0
   11.6243    1.3202   23.3354 C   0  0  0  0  0  0  0  0  0  0  0  0
   11.9062   -0.5146   22.8681 Br  0  0  0  0  0  0  0  0  0  0  0  0
   12.6461    2.2357   23.0977 C   0  0  0  0  0  0  0  0  0  0  0  0
   12.4745    3.5864   23.3866 C   0  0  0  0  0  0  0  0  0  0  0  0
   13.8347    4.6332   22.9880 Cl  0  0  0  0  0  0  0  0  0  0  0  0
  1  2  3  0
  2  3  1  0
  3  4  1  0
  4  5  1  6
  4  6  1  0
  6  7  1  0
  7  8  2  0
  7  9  2  0
  7 10  1  0
 10 11  2  0
 11 12  1  0
 12 13  2  0
 13 14  1  0
 13 15  1  0
 15 16  2  0
 16 17  1  0
 16 10  1  0
M  END
>  <Hit>  (299) 
Mpro-x0946_0

>  <Receptor>  (299) 
Mpro-x1249_0

>  <SCORE>  (299) 
-11.1335

>  <SCORE.norm>  (299) 
-0.65491200000000005

>  <SCORE.heavy>  (299) 
17

>  <OrigSmiles>  (299) 
C#CCC(C)NS(=O)(=O)c1ccc(Br)cc1Cl

>  <SuCOS_Score>  (299) 
0.64279051296347578

>  <Max_SuCOS_Score>  (299) 
0.64279051296347578

>  <Cum_SuCOS_Score>  (299) 
3.6701872536155591

>  <TransFSScore_50nM>  (299) 
0.0035590000000000001

>  <TransFSScore_1uM>  (299) 
0.035026000000000002

>  <TransFSScore_10nM>  (299) 
0.00057399999999999997

>  <TransFSScore_200nM>  (299) 
0.050722999999999997

>  <TransFSScore>  (299) 
0.022470499999999997

>  <FeatureSteinScore>  (299) 
0.46173642561279238

$$$$
C#CCC(C)Nc1ncc(C#N)cc1Cl
     RDKit          3D

 15 15  0  0  0  0  0  0  0  0999 V2000
    8.5467   -4.1625   28.7914 C   0  0  0  0  0  0  0  0  0  0  0  0
    8.5799   -3.2102   28.0530 C   0  0  0  0  0  0  0  0  0  0  0  0
    8.6205   -2.0457   27.1508 C   0  0  0  0  0  0  0  0  0  0  0  0
   10.0103   -1.3903   27.0368 C   0  0  2  0  0  0  0  0  0  0  0  0
   10.3167   -0.6753   28.3810 C   0  0  0  0  0  0  0  0  0  0  0  0
   10.0602   -0.4731   25.8711 N   0  0  0  0  0  0  0  0  0  0  0  0
   10.9480   -0.8176   24.7758 C   0  0  0  0  0  0  0  0  0  0  0  0
   11.5457    0.2042   24.0907 N   0  0  0  0  0  0  0  0  0  0  0  0
   12.3002   -0.0067   22.9821 C   0  0  0  0  0  0  0  0  0  0  0  0
   12.5213   -1.3010   22.5153 C   0  0  0  0  0  0  0  0  0  0  0  0
   13.3206   -1.5251   21.3310 C   0  0  0  0  0  0  0  0  0  0  0  0
   13.9604   -1.6998   20.3817 N   0  0  0  0  0  0  0  0  0  0  0  0
   11.9242   -2.3683   23.1799 C   0  0  0  0  0  0  0  0  0  0  0  0
   11.0827   -2.1381   24.2676 C   0  0  0  0  0  0  0  0  0  0  0  0
   10.0510   -3.4935   24.7225 Cl  0  0  0  0  0  0  0  0  0  0  0  0
  1  2  3  0
  2  3  1  0
  3  4  1  0
  4  5  1  1
  4  6  1  0
  6  7  1  0
  7  8  2  0
  8  9  1  0
  9 10  2  0
 10 11  1  0
 10 13  1  0
 11 12  3  0
 13 14  2  0
 14 15  1  0
 14  7  1  0
M  END
>  <Hit>  (300) 
Mpro-x0305_0

>  <Receptor>  (300) 
Mpro-x0387_0

>  <SCORE>  (300) 
-12.289999999999999

>  <SCORE.norm>  (300) 
-0.81933400000000001

>  <SCORE.heavy>  (300) 
15

>  <OrigSmiles>  (300) 
C#CCC(C)Nc1ncc(C#N)cc1Cl

>  <SuCOS_Score>  (300) 
0.77430448098111815

>  <Max_SuCOS_Score>  (300) 
0.77430448098111815

>  <Cum_SuCOS_Score>  (300) 
4.2295365476503983

>  <TransFSScore_50nM>  (300) 
0.014746

>  <TransFSScore_1uM>  (300) 
0.092245999999999995

>  <TransFSScore_10nM>  (300) 
0.0050410000000000003

>  <TransFSScore_200nM>  (300) 
0.63564600000000004

>  <TransFSScore>  (300) 
0.18691975

>  <FeatureSteinScore>  (300) 
0.36536143624201556

$$$$
C#CCC(C)Nc1nccc(C)c1C#N
     RDKit          3D

 15 15  0  0  0  0  0  0  0  0999 V2000
    9.8419   -4.3606   28.0943 C   0  0  0  0  0  0  0  0  0  0  0  0
    9.7646   -3.1996   28.4118 C   0  0  0  0  0  0  0  0  0  0  0  0
    9.6963   -1.7822   28.8013 C   0  0  0  0  0  0  0  0  0  0  0  0
    9.6689   -0.7974   27.5988 C   0  0  1  0  0  0  0  0  0  0  0  0
    9.3034    0.6527   27.9152 C   0  0  0  0  0  0  0  0  0  0  0  0
   10.7192   -0.8273   26.5766 N   0  0  0  0  0  0  0  0  0  0  0  0
   10.7842   -1.4047   25.2656 C   0  0  0  0  0  0  0  0  0  0  0  0
    9.7094   -2.1397   24.8560 N   0  0  0  0  0  0  0  0  0  0  0  0
    9.5837   -2.5837   23.5835 C   0  0  0  0  0  0  0  0  0  0  0  0
   10.6089   -2.3804   22.6701 C   0  0  0  0  0  0  0  0  0  0  0  0
   11.7401   -1.6588   23.0499 C   0  0  0  0  0  0  0  0  0  0  0  0
   12.7952   -1.3729   22.0121 C   0  0  0  0  0  0  0  0  0  0  0  0
   11.7611   -1.0427   24.3124 C   0  0  0  0  0  0  0  0  0  0  0  0
   12.3422    0.2808   24.3413 C   0  0  0  0  0  0  0  0  0  0  0  0
   12.7863    1.3488   24.3118 N   0  0  0  0  0  0  0  0  0  0  0  0
  1  2  3  0
  2  3  1  0
  3  4  1  0
  4  5  1  1
  4  6  1  0
  6  7  1  0
  7  8  2  0
  8  9  1  0
  9 10  2  0
 10 11  1  0
 11 12  1  0
 11 13  2  0
 13 14  1  0
 13  7  1  0
 14 15  3  0
M  END
>  <Hit>  (301) 
Mpro-x0305_0

>  <Receptor>  (301) 
Mpro-x0387_0

>  <SCORE>  (301) 
-10.4063

>  <SCORE.norm>  (301) 
-0.69375100000000001

>  <SCORE.heavy>  (301) 
15

>  <OrigSmiles>  (301) 
C#CCC(C)Nc1nccc(C)c1C#N

>  <SuCOS_Score>  (301) 
0.42690554499030509

>  <Max_SuCOS_Score>  (301) 
0.42690554499030509

>  <Cum_SuCOS_Score>  (301) 
3.8618769442148011

>  <TransFSScore_50nM>  (301) 
0.00081599999999999999

>  <TransFSScore_1uM>  (301) 
0.025738

>  <TransFSScore_10nM>  (301) 
0.000678

>  <TransFSScore_200nM>  (301) 
0.0043290000000000004

>  <TransFSScore>  (301) 
0.0078902500000000014

>  <FeatureSteinScore>  (301) 
0.27670497392718979

$$$$
C#CCC(C)OC(=O)C12CCC(CC1)N2
     RDKit          3D

 15 16  0  0  0  0  0  0  0  0999 V2000
    9.2038   -2.3298   22.1712 C   0  0  0  0  0  0  0  0  0  0  0  0
    9.0843   -3.2218   22.9734 C   0  0  0  0  0  0  0  0  0  0  0  0
    8.9406   -4.3133   23.9493 C   0  0  0  0  0  0  0  0  0  0  0  0
    9.9407   -4.1649   25.1076 C   0  0  2  0  0  0  0  0  0  0  0  0
   10.0593   -5.4833   25.8706 C   0  0  0  0  0  0  0  0  0  0  0  0
    9.5000   -3.1541   26.0172 O   0  0  0  0  0  0  0  0  0  0  0  0
    9.5838   -1.7801   25.7595 C   0  0  0  0  0  0  0  0  0  0  0  0
   10.1816   -1.3525   24.7343 O   0  0  0  0  0  0  0  0  0  0  0  0
    8.9521   -0.7998   26.7091 C   0  0  2  0  0  0  0  0  0  0  0  0
    9.5703   -0.8301   28.1229 C   0  0  0  0  0  0  0  0  0  0  0  0
    9.1648    0.5525   28.6536 C   0  0  0  0  0  0  0  0  0  0  0  0
    8.3933    1.1286   27.4498 C   0  0  2  0  0  0  0  0  0  0  0  0
    7.0246    0.4234   27.3750 C   0  0  0  0  0  0  0  0  0  0  0  0
    7.4226   -0.9597   26.8396 C   0  0  0  0  0  0  0  0  0  0  0  0
    9.1103    0.5908   26.3042 N   0  0  0  0  0  0  0  0  0  0  0  0
  1  2  3  0
  2  3  1  0
  3  4  1  0
  4  5  1  1
  4  6  1  0
  6  7  1  0
  7  8  2  0
  9  7  1  6
  9 10  1  0
 10 11  1  0
 12 11  1  1
 12 13  1  0
 12 15  1  0
 13 14  1  0
 14  9  1  0
 15  9  1  0
M  END
>  <Hit>  (302) 
Mpro-x0991_0

>  <Receptor>  (302) 
Mpro-x0305_0

>  <SCORE>  (302) 
-4.4037800000000002

>  <SCORE.norm>  (302) 
-0.29358499999999998

>  <SCORE.heavy>  (302) 
15

>  <OrigSmiles>  (302) 
C#CCC(C)OC(=O)C12CCC(CC1)N2

>  <SuCOS_Score>  (302) 
0.39365670787779056

>  <Max_SuCOS_Score>  (302) 
0.39365670787779056

>  <Cum_SuCOS_Score>  (302) 
2.5212701019471124

>  <TransFSScore_50nM>  (302) 
0.070391999999999996

>  <TransFSScore_1uM>  (302) 
0.48162700000000003

>  <TransFSScore_10nM>  (302) 
0.085421999999999998

>  <TransFSScore_200nM>  (302) 
0.51978899999999995

>  <TransFSScore>  (302) 
0.2893075

>  <FeatureSteinScore>  (302) 
0.39429798640848163

$$$$
C#CCC(C)OC(=O)C1CC2CCC1N2
     RDKit          3D

 15 16  0  0  0  0  0  0  0  0999 V2000
    8.8478   -5.3934   26.9054 C   0  0  0  0  0  0  0  0  0  0  0  0
    8.2161   -5.2338   25.8909 C   0  0  0  0  0  0  0  0  0  0  0  0
    7.4416   -5.0362   24.6556 C   0  0  0  0  0  0  0  0  0  0  0  0
    8.3432   -5.1010   23.4116 C   0  0  1  0  0  0  0  0  0  0  0  0
    7.5153   -5.4725   22.1823 C   0  0  0  0  0  0  0  0  0  0  0  0
    8.9580   -3.8316   23.1774 O   0  0  0  0  0  0  0  0  0  0  0  0
    9.9913   -3.3082   23.9634 C   0  0  0  0  0  0  0  0  0  0  0  0
   10.3862   -3.9216   24.9934 O   0  0  0  0  0  0  0  0  0  0  0  0
   10.5777   -1.9709   23.5909 C   0  0  2  0  0  0  0  0  0  0  0  0
    9.5291   -0.8515   23.4093 C   0  0  0  0  0  0  0  0  0  0  0  0
    9.7946   -0.4234   21.9519 C   0  0  1  0  0  0  0  0  0  0  0  0
   11.1233    0.3570   21.9096 C   0  0  0  0  0  0  0  0  0  0  0  0
   12.1479   -0.7778   22.0601 C   0  0  0  0  0  0  0  0  0  0  0  0
   11.2245   -2.0055   22.1846 C   0  0  2  0  0  0  0  0  0  0  0  0
   10.1249   -1.6749   21.2899 N   0  0  0  0  0  0  0  0  0  0  0  0
  1  2  3  0
  2  3  1  0
  3  4  1  0
  4  5  1  6
  4  6  1  0
  6  7  1  0
  7  8  2  0
  9  7  1  6
  9 10  1  0
 11 10  1  1
 11 12  1  0
 12 13  1  0
 14 13  1  1
 14 15  1  0
 14  9  1  0
 15 11  1  0
M  END
>  <Hit>  (303) 
Mpro-x0991_0

>  <Receptor>  (303) 
Mpro-x0874_0

>  <SCORE>  (303) 
-10.532500000000001

>  <SCORE.norm>  (303) 
-0.70216900000000004

>  <SCORE.heavy>  (303) 
15

>  <OrigSmiles>  (303) 
C#CCC(C)OC(=O)C1CC2CCC1N2

>  <SuCOS_Score>  (303) 
0.48021812401616815

>  <Max_SuCOS_Score>  (303) 
0.48021812401616815

>  <Cum_SuCOS_Score>  (303) 
3.8988486421119162

>  <TransFSScore_50nM>  (303) 
0.022065000000000001

>  <TransFSScore_1uM>  (303) 
0.272673

>  <TransFSScore_10nM>  (303) 
0.011490999999999999

>  <TransFSScore_200nM>  (303) 
0.243175

>  <TransFSScore>  (303) 
0.137351

>  <FeatureSteinScore>  (303) 
0.37148636182360717

$$$$
C#CCC(C)OC(=O)[C@@H]1C[C@@H]2CC[C@H]1N2
     RDKit          3D

 15 16  0  0  0  0  0  0  0  0999 V2000
    9.3162   -4.6565   25.4585 C   0  0  0  0  0  0  0  0  0  0  0  0
    8.8522   -4.3216   24.3974 C   0  0  0  0  0  0  0  0  0  0  0  0
    8.2856   -3.9122   23.1013 C   0  0  0  0  0  0  0  0  0  0  0  0
    8.6106   -2.4457   22.7839 C   0  0  1  0  0  0  0  0  0  0  0  0
   10.1236   -2.1887   22.8141 C   0  0  0  0  0  0  0  0  0  0  0  0
    8.0985   -2.1421   21.4864 O   0  0  0  0  0  0  0  0  0  0  0  0
    7.9221   -0.8385   21.0043 C   0  0  0  0  0  0  0  0  0  0  0  0
    7.9861    0.1467   21.7891 O   0  0  0  0  0  0  0  0  0  0  0  0
    7.6976   -0.5909   19.5342 C   0  0  2  0  0  0  0  0  0  0  0  0
    7.3434    0.8640   19.1595 C   0  0  0  0  0  0  0  0  0  0  0  0
    6.0345    0.6608   18.3699 C   0  0  2  0  0  0  0  0  0  0  0  0
    4.9078    0.3629   19.3777 C   0  0  0  0  0  0  0  0  0  0  0  0
    5.2171   -1.0910   19.7571 C   0  0  0  0  0  0  0  0  0  0  0  0
    6.4941   -1.3574   18.9303 C   0  0  1  0  0  0  0  0  0  0  0  0
    6.2346   -0.6184   17.7043 N   0  0  0  0  0  0  0  0  0  0  0  0
  1  2  3  0
  2  3  1  0
  3  4  1  0
  4  5  1  6
  4  6  1  0
  6  7  1  0
  7  8  2  0
  9  7  1  1
  9 10  1  0
 11 10  1  1
 11 12  1  0
 12 13  1  0
 14 13  1  1
 14 15  1  0
 14  9  1  0
 15 11  1  0
M  END
>  <Hit>  (304) 
Mpro-x0991_0

>  <Receptor>  (304) 
Mpro-x0874_0

>  <SCORE>  (304) 
-10.354799999999999

>  <SCORE.norm>  (304) 
-0.69031699999999996

>  <SCORE.heavy>  (304) 
15

>  <OrigSmiles>  (304) 
C#CCC(C)OC(=O)[C@@H]1C[C@@H]2CC[C@H]1N2

>  <SuCOS_Score>  (304) 
0.41726943321928173

>  <Max_SuCOS_Score>  (304) 
0.41726943321928173

>  <Cum_SuCOS_Score>  (304) 
3.7320061647009215

>  <TransFSScore_50nM>  (304) 
0.0087100000000000007

>  <TransFSScore_1uM>  (304) 
0.17182800000000001

>  <TransFSScore_10nM>  (304) 
0.032327000000000002

>  <TransFSScore_200nM>  (304) 
0.62914199999999998

>  <TransFSScore>  (304) 
0.21050174999999999

>  <FeatureSteinScore>  (304) 
0.63453809876147993

$$$$
C#CCC(CC)NC(C)C1C2CNC1C2
     RDKit          3D

 15 16  0  0  0  0  0  0  0  0999 V2000
    7.8851   -6.1521   28.0536 C   0  0  0  0  0  0  0  0  0  0  0  0
    8.7126   -5.7252   27.2882 C   0  0  0  0  0  0  0  0  0  0  0  0
    9.7248   -5.2034   26.3584 C   0  0  0  0  0  0  0  0  0  0  0  0
    9.1641   -4.0330   25.5136 C   0  0  2  0  0  0  0  0  0  0  0  0
   10.1016   -3.6013   24.3523 C   0  0  0  0  0  0  0  0  0  0  0  0
    9.5298   -2.5248   23.4292 C   0  0  0  0  0  0  0  0  0  0  0  0
    8.8093   -2.8702   26.3525 N   0  0  0  0  0  0  0  0  0  0  0  0
    7.4337   -2.3744   26.1243 C   0  0  1  0  0  0  0  0  0  0  0  0
    6.3786   -3.3141   26.7317 C   0  0  0  0  0  0  0  0  0  0  0  0
    7.3518   -0.8466   26.4678 C   0  0  2  0  0  0  0  0  0  0  0  0
    8.1388    0.1847   25.6610 C   0  0  2  0  0  0  0  0  0  0  0  0
    9.5918   -0.2011   25.9703 C   0  0  0  0  0  0  0  0  0  0  0  0
    9.5192   -0.3821   27.4336 N   0  0  0  0  0  0  0  0  0  0  0  0
    8.0835   -0.1235   27.6182 C   0  0  1  0  0  0  0  0  0  0  0  0
    7.9157    1.1682   26.8109 C   0  0  0  0  0  0  0  0  0  0  0  0
  1  2  3  0
  2  3  1  0
  4  3  1  1
  4  5  1  0
  4  7  1  0
  5  6  1  0
  7  8  1  0
  8  9  1  1
 10  8  1  6
 10 11  1  0
 11 12  1  1
 12 13  1  0
 13 14  1  0
 14 15  1  6
 14 10  1  0
 15 11  1  0
M  END
>  <Hit>  (305) 
Mpro-x0991_0

>  <Receptor>  (305) 
Mpro-x1249_0

>  <SCORE>  (305) 
-10.321400000000001

>  <SCORE.norm>  (305) 
-0.68809500000000001

>  <SCORE.heavy>  (305) 
15

>  <OrigSmiles>  (305) 
C#CCC(CC)NC(C)C1C2CNC1C2

>  <SuCOS_Score>  (305) 
0.30858316106525757

>  <Max_SuCOS_Score>  (305) 
0.30858316106525757

>  <Cum_SuCOS_Score>  (305) 
2.2998548996059975

>  <TransFSScore_50nM>  (305) 
0.000861

>  <TransFSScore_1uM>  (305) 
0.31642100000000001

>  <TransFSScore_10nM>  (305) 
0.0014189999999999999

>  <TransFSScore_200nM>  (305) 
0.027274

>  <TransFSScore>  (305) 
0.086493750000000008

>  <FeatureSteinScore>  (305) 
0.20449544741888037

$$$$
C#CCC(CC)NCc1cccc2[nH]ccc12
     RDKit          3D

 17 18  0  0  0  0  0  0  0  0999 V2000
    4.3470    2.3393   21.7820 C   0  0  0  0  0  0  0  0  0  0  0  0
    5.4942    2.3338   21.4119 C   0  0  0  0  0  0  0  0  0  0  0  0
    6.8917    2.3322   20.9562 C   0  0  0  0  0  0  0  0  0  0  0  0
    7.8705    2.4063   22.1523 C   0  0  2  0  0  0  0  0  0  0  0  0
    7.4823    3.5653   23.1147 C   0  0  0  0  0  0  0  0  0  0  0  0
    7.6059    4.9732   22.5237 C   0  0  0  0  0  0  0  0  0  0  0  0
    9.2774    2.4902   21.6785 N   0  0  0  0  0  0  0  0  0  0  0  0
   10.2767    2.1772   22.7188 C   0  0  0  0  0  0  0  0  0  0  0  0
   10.7331    0.7360   22.6506 C   0  0  0  0  0  0  0  0  0  0  0  0
   12.0169    0.3771   23.1187 C   0  0  0  0  0  0  0  0  0  0  0  0
   12.4682   -0.9547   23.0305 C   0  0  0  0  0  0  0  0  0  0  0  0
   11.6443   -1.9490   22.4735 C   0  0  0  0  0  0  0  0  0  0  0  0
   10.3761   -1.5761   22.0170 C   0  0  0  0  0  0  0  0  0  0  0  0
    9.4417   -2.3638   21.4515 N   0  0  0  0  0  0  0  0  0  0  0  0
    8.3894   -1.5635   21.1701 C   0  0  0  0  0  0  0  0  0  0  0  0
    8.6568   -0.2573   21.5596 C   0  0  0  0  0  0  0  0  0  0  0  0
    9.9332   -0.2814   22.1011 C   0  0  0  0  0  0  0  0  0  0  0  0
  1  2  3  0
  2  3  1  0
  4  3  1  6
  4  5  1  0
  4  7  1  0
  5  6  1  0
  7  8  1  0
  8  9  1  0
  9 10  2  0
 10 11  1  0
 11 12  2  0
 12 13  1  0
 13 14  1  0
 14 15  1  0
 15 16  2  0
 16 17  1  0
 17  9  1  0
 17 13  2  0
M  END
>  <Hit>  (306) 
Mpro-x0104_0

>  <Receptor>  (306) 
Mpro-x0387_0

>  <SCORE>  (306) 
-4.9722499999999998

>  <SCORE.norm>  (306) 
-0.29248499999999999

>  <SCORE.heavy>  (306) 
17

>  <OrigSmiles>  (306) 
C#CCC(CC)NCc1cccc2[nH]ccc12

>  <SuCOS_Score>  (306) 
0.2122053600192057

>  <Max_SuCOS_Score>  (306) 
0.37089169450940274

>  <Cum_SuCOS_Score>  (306) 
4.2947921575931796

>  <TransFSScore_50nM>  (306) 
0.0097230000000000007

>  <TransFSScore_1uM>  (306) 
0.017312000000000001

>  <TransFSScore_10nM>  (306) 
0.000134

>  <TransFSScore_200nM>  (306) 
0.0036440000000000001

>  <TransFSScore>  (306) 
0.0077032500000000009

>  <FeatureSteinScore>  (306) 
0.23659528982626776

$$$$
C#CCC(N)C(=O)N(C)Cc1ccccc1O
     RDKit          3D

 17 17  0  0  0  0  0  0  0  0999 V2000
    8.8522   -2.0841   26.0684 C   0  0  0  0  0  0  0  0  0  0  0  0
    8.3026   -1.8406   25.0234 C   0  0  0  0  0  0  0  0  0  0  0  0
    7.6329   -1.5412   23.7500 C   0  0  0  0  0  0  0  0  0  0  0  0
    8.4468   -2.0636   22.5492 C   0  0  1  0  0  0  0  0  0  0  0  0
    8.5135   -3.5299   22.5805 N   0  0  0  0  0  0  0  0  0  0  0  0
    7.8281   -1.6016   21.2388 C   0  0  0  0  0  0  0  0  0  0  0  0
    6.8428   -2.2499   20.7897 O   0  0  0  0  0  0  0  0  0  0  0  0
    8.3118   -0.4479   20.5080 N   0  0  0  0  0  0  0  0  0  0  0  0
    9.4309    0.3583   21.0100 C   0  0  0  0  0  0  0  0  0  0  0  0
    7.6769   -0.0812   19.2319 C   0  0  0  0  0  0  0  0  0  0  0  0
    6.3973    0.6805   19.4818 C   0  0  0  0  0  0  0  0  0  0  0  0
    5.9636    0.8706   20.8022 C   0  0  0  0  0  0  0  0  0  0  0  0
    4.7958    1.5861   21.0692 C   0  0  0  0  0  0  0  0  0  0  0  0
    4.0482    2.1174   20.0181 C   0  0  0  0  0  0  0  0  0  0  0  0
    4.4659    1.9337   18.6993 C   0  0  0  0  0  0  0  0  0  0  0  0
    5.6395    1.2189   18.4253 C   0  0  0  0  0  0  0  0  0  0  0  0
    6.0563    1.0467   17.1097 O   0  0  0  0  0  0  0  0  0  0  0  0
  1  2  3  0
  2  3  1  0
  3  4  1  0
  4  5  1  6
  4  6  1  0
  6  7  2  0
  6  8  1  0
  8  9  1  0
  8 10  1  0
 10 11  1  0
 11 12  2  0
 12 13  1  0
 13 14  2  0
 14 15  1  0
 15 16  2  0
 16 17  1  0
 16 11  1  0
M  END
>  <Hit>  (307) 
Mpro-x0967_0

>  <Receptor>  (307) 
Mpro-x0874_0

>  <SCORE>  (307) 
-10.011900000000001

>  <SCORE.norm>  (307) 
-0.58893600000000002

>  <SCORE.heavy>  (307) 
17

>  <OrigSmiles>  (307) 
C#CCC(N)C(=O)N(C)Cc1ccccc1O

>  <SuCOS_Score>  (307) 
0.32098454122475872

>  <Max_SuCOS_Score>  (307) 
0.4890651819558034

>  <Cum_SuCOS_Score>  (307) 
4.1887725533129352

>  <TransFSScore_50nM>  (307) 
0.54493800000000003

>  <TransFSScore_1uM>  (307) 
0.445438

>  <TransFSScore_10nM>  (307) 
0.10086299999999999

>  <TransFSScore_200nM>  (307) 
0.97424999999999995

>  <TransFSScore>  (307) 
0.51637224999999998

>  <FeatureSteinScore>  (307) 
0.51305969803358742

$$$$
C#CCC(N)C(=O)N1C2CCC1CC2
     RDKit          3D

 14 15  0  0  0  0  0  0  0  0999 V2000
    8.8349    0.1943   20.3053 C   0  0  0  0  0  0  0  0  0  0  0  0
    8.7536   -0.8664   20.8726 C   0  0  0  0  0  0  0  0  0  0  0  0
    8.6579   -2.1626   21.5667 C   0  0  0  0  0  0  0  0  0  0  0  0
    8.8609   -2.0776   23.1035 C   0  0  2  0  0  0  0  0  0  0  0  0
    7.8202   -1.2748   23.7493 N   0  0  0  0  0  0  0  0  0  0  0  0
   10.2480   -1.6137   23.5242 C   0  0  0  0  0  0  0  0  0  0  0  0
   10.9714   -2.3889   24.1366 O   0  0  0  0  0  0  0  0  0  0  0  0
   10.7646   -0.3299   23.0671 N   0  0  0  0  0  0  0  0  0  0  0  0
   12.0010    0.1281   23.7076 C   0  0  1  0  0  0  0  0  0  0  0  0
   12.2325    1.5007   23.0412 C   0  0  0  0  0  0  0  0  0  0  0  0
   10.7877    2.0098   22.8886 C   0  0  0  0  0  0  0  0  0  0  0  0
    9.9853    0.8358   23.4896 C   0  0  2  0  0  0  0  0  0  0  0  0
   10.1659    0.8951   25.0226 C   0  0  0  0  0  0  0  0  0  0  0  0
   11.6075    0.3978   25.1795 C   0  0  0  0  0  0  0  0  0  0  0  0
  1  2  3  0
  2  3  1  0
  3  4  1  0
  4  5  1  6
  4  6  1  0
  6  7  2  0
  6  8  1  0
  8  9  1  0
  9 10  1  6
 10 11  1  0
 12 11  1  6
 12 13  1  0
 12  8  1  0
 13 14  1  0
 14  9  1  0
M  END
>  <Hit>  (308) 
Mpro-x0991_0

>  <Receptor>  (308) 
Mpro-x1249_0

>  <SCORE>  (308) 
-5.3173300000000001

>  <SCORE.norm>  (308) 
-0.37980900000000001

>  <SCORE.heavy>  (308) 
14

>  <OrigSmiles>  (308) 
C#CCC(N)C(=O)N1C2CCC1CC2

>  <SuCOS_Score>  (308) 
0.085920770877944308

>  <Max_SuCOS_Score>  (308) 
0.33751673131287269

>  <Cum_SuCOS_Score>  (308) 
3.9830766185067343

>  <TransFSScore_50nM>  (308) 
0.13480600000000001

>  <TransFSScore_1uM>  (308) 
0.46950500000000001

>  <TransFSScore_10nM>  (308) 
0.64819400000000005

>  <TransFSScore_200nM>  (308) 
0.48612899999999998

>  <TransFSScore>  (308) 
0.43465850000000006

>  <FeatureSteinScore>  (308) 
0.37018644177718246

$$$$
C#CCC(N)C(=O)Nc1cc(Cl)cc(Br)c1
     RDKit          3D

 16 16  0  0  0  0  0  0  0  0999 V2000
    9.1874    6.4375   22.7800 C   0  0  0  0  0  0  0  0  0  0  0  0
   10.2343    6.2871   23.3587 C   0  0  0  0  0  0  0  0  0  0  0  0
   11.5116    6.1079   24.0649 C   0  0  0  0  0  0  0  0  0  0  0  0
   12.4605    5.1176   23.3575 C   0  0  2  0  0  0  0  0  0  0  0  0
   12.7187    5.5056   21.9631 N   0  0  0  0  0  0  0  0  0  0  0  0
   11.9669    3.6903   23.4656 C   0  0  0  0  0  0  0  0  0  0  0  0
   12.6276    2.8741   24.1639 O   0  0  0  0  0  0  0  0  0  0  0  0
   10.7290    3.2801   22.8579 N   0  0  0  0  0  0  0  0  0  0  0  0
   10.3223    1.9079   22.7201 C   0  0  0  0  0  0  0  0  0  0  0  0
    8.9546    1.5993   22.6705 C   0  0  0  0  0  0  0  0  0  0  0  0
    8.5369    0.2722   22.5155 C   0  0  0  0  0  0  0  0  0  0  0  0
    6.8249   -0.1072   22.4694 Cl  0  0  0  0  0  0  0  0  0  0  0  0
    9.4834   -0.7526   22.3900 C   0  0  0  0  0  0  0  0  0  0  0  0
   10.8497   -0.4494   22.4161 C   0  0  0  0  0  0  0  0  0  0  0  0
   12.1612   -1.8325   22.1970 Br  0  0  0  0  0  0  0  0  0  0  0  0
   11.2673    0.8752   22.5797 C   0  0  0  0  0  0  0  0  0  0  0  0
  1  2  3  0
  2  3  1  0
  3  4  1  0
  4  5  1  6
  4  6  1  0
  6  7  2  0
  6  8  1  0
  8  9  1  0
  9 10  2  0
 10 11  1  0
 11 12  1  0
 11 13  2  0
 13 14  1  0
 14 15  1  0
 14 16  2  0
 16  9  1  0
M  END
>  <Hit>  (309) 
Mpro-x0946_0

>  <Receptor>  (309) 
Mpro-x0387_0

>  <SCORE>  (309) 
-10.057399999999999

>  <SCORE.norm>  (309) 
-0.62858599999999998

>  <SCORE.heavy>  (309) 
16

>  <OrigSmiles>  (309) 
C#CCC(N)C(=O)Nc1cc(Cl)cc(Br)c1

>  <SuCOS_Score>  (309) 
0.3112164406944552

>  <Max_SuCOS_Score>  (309) 
0.39209349425917117

>  <Cum_SuCOS_Score>  (309) 
3.888699132178242

>  <TransFSScore_50nM>  (309) 
0.039042

>  <TransFSScore_1uM>  (309) 
0.106919

>  <TransFSScore_10nM>  (309) 
0.089297000000000001

>  <TransFSScore_200nM>  (309) 
0.094898999999999997

>  <TransFSScore>  (309) 
0.082539250000000008

>  <FeatureSteinScore>  (309) 
0.17694993865675701

$$$$
C#CCC(N)C(O)c1ccc(Br)cc1Cl
     RDKit          3D

 15 15  0  0  0  0  0  0  0  0999 V2000
   10.4011    7.4607   25.4928 C   0  0  0  0  0  0  0  0  0  0  0  0
   11.4903    7.0446   25.1867 C   0  0  0  0  0  0  0  0  0  0  0  0
   12.8185    6.5370   24.8131 C   0  0  0  0  0  0  0  0  0  0  0  0
   12.7936    5.0482   24.4042 C   0  0  2  0  0  0  0  0  0  0  0  0
   14.0343    4.7075   23.6987 N   0  0  0  0  0  0  0  0  0  0  0  0
   11.5376    4.6649   23.5596 C   0  0  1  0  0  0  0  0  0  0  0  0
   11.4567    5.4350   22.3846 O   0  0  0  0  0  0  0  0  0  0  0  0
   11.4982    3.1807   23.2093 C   0  0  0  0  0  0  0  0  0  0  0  0
   12.7058    2.4632   23.0989 C   0  0  0  0  0  0  0  0  0  0  0  0
   12.7055    1.1025   22.7873 C   0  0  0  0  0  0  0  0  0  0  0  0
   11.5024    0.4305   22.5734 C   0  0  0  0  0  0  0  0  0  0  0  0
   11.5274   -1.4296   22.1053 Br  0  0  0  0  0  0  0  0  0  0  0  0
   10.2921    1.1209   22.6825 C   0  0  0  0  0  0  0  0  0  0  0  0
   10.2791    2.4877   22.9965 C   0  0  0  0  0  0  0  0  0  0  0  0
    8.7063    3.2750   23.0992 Cl  0  0  0  0  0  0  0  0  0  0  0  0
  1  2  3  0
  2  3  1  0
  3  4  1  0
  4  5  1  6
  4  6  1  0
  6  7  1  6
  6  8  1  0
  8  9  2  0
  9 10  1  0
 10 11  2  0
 11 12  1  0
 11 13  1  0
 13 14  2  0
 14 15  1  0
 14  8  1  0
M  END
>  <Hit>  (310) 
Mpro-x0946_0

>  <Receptor>  (310) 
Mpro-x0305_0

>  <SCORE>  (310) 
-11.994199999999999

>  <SCORE.norm>  (310) 
-0.79961599999999999

>  <SCORE.heavy>  (310) 
15

>  <OrigSmiles>  (310) 
C#CCC(N)C(O)c1ccc(Br)cc1Cl

>  <SuCOS_Score>  (310) 
0.48034178307351583

>  <Max_SuCOS_Score>  (310) 
0.48034178307351583

>  <Cum_SuCOS_Score>  (310) 
3.5606842462715957

>  <TransFSScore_50nM>  (310) 
0.000475

>  <TransFSScore_1uM>  (310) 
0.048245999999999997

>  <TransFSScore_10nM>  (310) 
0.00073800000000000005

>  <TransFSScore_200nM>  (310) 
0.055752999999999997

>  <TransFSScore>  (310) 
0.026303

>  <FeatureSteinScore>  (310) 
0.29800314687952834

$$$$
C#CCC(N)CN1C2CCC1CC2
     RDKit          3D

 13 14  0  0  0  0  0  0  0  0999 V2000
   10.0301   -2.4765   22.6462 C   0  0  0  0  0  0  0  0  0  0  0  0
    9.8364   -2.9416   23.7413 C   0  0  0  0  0  0  0  0  0  0  0  0
    9.5994   -3.5100   25.0786 C   0  0  0  0  0  0  0  0  0  0  0  0
    9.6110   -5.0628   25.0443 C   0  0  1  0  0  0  0  0  0  0  0  0
    9.3499   -5.6185   26.3770 N   0  0  0  0  0  0  0  0  0  0  0  0
    8.5669   -5.5863   24.0325 C   0  0  0  0  0  0  0  0  0  0  0  0
    7.2419   -4.9776   24.2915 N   0  0  0  0  0  0  0  0  0  0  0  0
    6.0804   -5.8270   24.0472 C   0  0  2  0  0  0  0  0  0  0  0  0
    6.0133   -6.0165   22.5145 C   0  0  0  0  0  0  0  0  0  0  0  0
    6.5861   -4.6861   22.0180 C   0  0  0  0  0  0  0  0  0  0  0  0
    6.8411   -3.9444   23.3467 C   0  0  1  0  0  0  0  0  0  0  0  0
    5.4784   -3.5266   23.9262 C   0  0  0  0  0  0  0  0  0  0  0  0
    4.9397   -4.8753   24.4431 C   0  0  0  0  0  0  0  0  0  0  0  0
  1  2  3  0
  2  3  1  0
  3  4  1  0
  4  5  1  1
  4  6  1  0
  6  7  1  0
  7  8  1  0
  8  9  1  6
  9 10  1  0
 11 10  1  6
 11 12  1  0
 11  7  1  0
 12 13  1  0
 13  8  1  0
M  END
>  <Hit>  (311) 
Mpro-x0991_0

>  <Receptor>  (311) 
Mpro-x0874_0

>  <SCORE>  (311) 
-4.6067499999999999

>  <SCORE.norm>  (311) 
-0.35436499999999999

>  <SCORE.heavy>  (311) 
13

>  <OrigSmiles>  (311) 
C#CCC(N)CN1C2CCC1CC2

>  <SuCOS_Score>  (311) 
0.47065315498667659

>  <Max_SuCOS_Score>  (311) 
0.47065315498667659

>  <Cum_SuCOS_Score>  (311) 
2.1662989783107958

>  <TransFSScore_50nM>  (311) 
0.0020860000000000002

>  <TransFSScore_1uM>  (311) 
0.101051

>  <TransFSScore_10nM>  (311) 
0.050089000000000002

>  <TransFSScore_200nM>  (311) 
0.33620800000000001

>  <TransFSScore>  (311) 
0.12235850000000001

>  <FeatureSteinScore>  (311) 
0.39922122344195526

$$$$
C#CCC(N)c1cc(Cl)cc(Br)c1
     RDKit          3D

 13 13  0  0  0  0  0  0  0  0999 V2000
    9.6055    6.2122   23.0807 C   0  0  0  0  0  0  0  0  0  0  0  0
   10.7611    5.9958   22.8141 C   0  0  0  0  0  0  0  0  0  0  0  0
   12.1692    5.7321   22.4895 C   0  0  0  0  0  0  0  0  0  0  0  0
   12.7860    4.6977   23.4545 C   0  0  2  0  0  0  0  0  0  0  0  0
   14.2528    4.6744   23.3528 N   0  0  0  0  0  0  0  0  0  0  0  0
   12.2107    3.3164   23.1889 C   0  0  0  0  0  0  0  0  0  0  0  0
   10.8182    3.1372   23.1134 C   0  0  0  0  0  0  0  0  0  0  0  0
   10.2833    1.8665   22.8710 C   0  0  0  0  0  0  0  0  0  0  0  0
    8.5446    1.6510   22.7824 Cl  0  0  0  0  0  0  0  0  0  0  0  0
   11.1324    0.7673   22.6944 C   0  0  0  0  0  0  0  0  0  0  0  0
   12.5197    0.9380   22.7594 C   0  0  0  0  0  0  0  0  0  0  0  0
   13.7009   -0.5480   22.4810 Br  0  0  0  0  0  0  0  0  0  0  0  0
   13.0556    2.2046   23.0107 C   0  0  0  0  0  0  0  0  0  0  0  0
  1  2  3  0
  2  3  1  0
  3  4  1  0
  4  5  1  6
  4  6  1  0
  6  7  2  0
  7  8  1  0
  8  9  1  0
  8 10  2  0
 10 11  1  0
 11 12  1  0
 11 13  2  0
 13  6  1  0
M  END
>  <Hit>  (312) 
Mpro-x0946_0

>  <Receptor>  (312) 
Mpro-x0305_0

>  <SCORE>  (312) 
-15.176299999999999

>  <SCORE.norm>  (312) 
-1.1674100000000001

>  <SCORE.heavy>  (312) 
13

>  <OrigSmiles>  (312) 
C#CCC(N)c1cc(Cl)cc(Br)c1

>  <SuCOS_Score>  (312) 
0.56245854044306853

>  <Max_SuCOS_Score>  (312) 
0.56245854044306853

>  <Cum_SuCOS_Score>  (312) 
3.5179431247679309

>  <TransFSScore_50nM>  (312) 
0.068102999999999997

>  <TransFSScore_1uM>  (312) 
0.044687999999999999

>  <TransFSScore_10nM>  (312) 
0.0013209999999999999

>  <TransFSScore_200nM>  (312) 
0.086517999999999998

>  <TransFSScore>  (312) 
0.050157500000000001

>  <FeatureSteinScore>  (312) 
0.38138332983304912

$$$$
C#CCC(N)c1ccc(Br)cc1Cl
     RDKit          3D

 13 13  0  0  0  0  0  0  0  0999 V2000
   12.5147    7.4330   25.3926 C   0  0  0  0  0  0  0  0  0  0  0  0
   12.6831    6.3073   24.9958 C   0  0  0  0  0  0  0  0  0  0  0  0
   12.8893    4.9335   24.5160 C   0  0  0  0  0  0  0  0  0  0  0  0
   11.8519    4.5537   23.4391 C   0  0  1  0  0  0  0  0  0  0  0  0
   12.1109    5.2889   22.1935 N   0  0  0  0  0  0  0  0  0  0  0  0
   11.8365    3.0469   23.1834 C   0  0  0  0  0  0  0  0  0  0  0  0
   13.0552    2.3506   23.0573 C   0  0  0  0  0  0  0  0  0  0  0  0
   13.0740    0.9729   22.8333 C   0  0  0  0  0  0  0  0  0  0  0  0
   11.8790    0.2610   22.7310 C   0  0  0  0  0  0  0  0  0  0  0  0
   11.9276   -1.6252   22.3852 Br  0  0  0  0  0  0  0  0  0  0  0  0
   10.6586    0.9286   22.8668 C   0  0  0  0  0  0  0  0  0  0  0  0
   10.6270    2.3122   23.0938 C   0  0  0  0  0  0  0  0  0  0  0  0
    9.0436    3.0658   23.2652 Cl  0  0  0  0  0  0  0  0  0  0  0  0
  1  2  3  0
  2  3  1  0
  3  4  1  0
  4  5  1  6
  4  6  1  0
  6  7  2  0
  7  8  1  0
  8  9  2  0
  9 10  1  0
  9 11  1  0
 11 12  2  0
 12 13  1  0
 12  6  1  0
M  END
>  <Hit>  (313) 
Mpro-x0946_0

>  <Receptor>  (313) 
Mpro-x0305_0

>  <SCORE>  (313) 
-10.161799999999999

>  <SCORE.norm>  (313) 
-0.78167799999999998

>  <SCORE.heavy>  (313) 
13

>  <OrigSmiles>  (313) 
C#CCC(N)c1ccc(Br)cc1Cl

>  <SuCOS_Score>  (313) 
0.48133525194445415

>  <Max_SuCOS_Score>  (313) 
0.48133525194445415

>  <Cum_SuCOS_Score>  (313) 
3.6870606360596256

>  <TransFSScore_50nM>  (313) 
0.010874

>  <TransFSScore_1uM>  (313) 
0.0060829999999999999

>  <TransFSScore_10nM>  (313) 
0.015442000000000001

>  <TransFSScore_200nM>  (313) 
0.133296

>  <TransFSScore>  (313) 
0.041423749999999995

>  <FeatureSteinScore>  (313) 
0.35605517474673054

$$$$
C#CCC(N)c1ccc(Cl)cc1Br
     RDKit          3D

 13 13  0  0  0  0  0  0  0  0999 V2000
    9.9750   -4.9641   24.8522 C   0  0  0  0  0  0  0  0  0  0  0  0
    9.8729   -3.7952   24.5757 C   0  0  0  0  0  0  0  0  0  0  0  0
    9.7465   -2.3697   24.2419 C   0  0  0  0  0  0  0  0  0  0  0  0
   10.6556   -1.9872   23.0547 C   0  0  1  0  0  0  0  0  0  0  0  0
    9.9749   -2.1962   21.7680 N   0  0  0  0  0  0  0  0  0  0  0  0
   11.2344   -0.5730   23.1753 C   0  0  0  0  0  0  0  0  0  0  0  0
   10.4791    0.3799   23.8898 C   0  0  0  0  0  0  0  0  0  0  0  0
   10.9254    1.6934   24.0381 C   0  0  0  0  0  0  0  0  0  0  0  0
   12.1415    2.0819   23.4785 C   0  0  0  0  0  0  0  0  0  0  0  0
   12.7061    3.7320   23.6670 Cl  0  0  0  0  0  0  0  0  0  0  0  0
   12.9087    1.1581   22.7643 C   0  0  0  0  0  0  0  0  0  0  0  0
   12.4676   -0.1635   22.5989 C   0  0  0  0  0  0  0  0  0  0  0  0
   13.5934   -1.3277   21.5571 Br  0  0  0  0  0  0  0  0  0  0  0  0
  1  2  3  0
  2  3  1  0
  3  4  1  0
  4  5  1  6
  4  6  1  0
  6  7  2  0
  7  8  1  0
  8  9  2  0
  9 10  1  0
  9 11  1  0
 11 12  2  0
 12 13  1  0
 12  6  1  0
M  END
>  <Hit>  (314) 
Mpro-x0946_0

>  <Receptor>  (314) 
Mpro-x1249_0

>  <SCORE>  (314) 
-11.895300000000001

>  <SCORE.norm>  (314) 
-0.91501999999999994

>  <SCORE.heavy>  (314) 
13

>  <OrigSmiles>  (314) 
C#CCC(N)c1ccc(Cl)cc1Br

>  <SuCOS_Score>  (314) 
0.32502595547655277

>  <Max_SuCOS_Score>  (314) 
0.42078949845929392

>  <Cum_SuCOS_Score>  (314) 
5.1717109467084814

>  <TransFSScore_50nM>  (314) 
0.0039240000000000004

>  <TransFSScore_1uM>  (314) 
0.031022000000000001

>  <TransFSScore_10nM>  (314) 
0.0041949999999999999

>  <TransFSScore_200nM>  (314) 
0.104382

>  <TransFSScore>  (314) 
0.035880750000000003

>  <FeatureSteinScore>  (314) 
0.44780513132193117

$$$$
C#CCC(NC)c1cc(Cl)cc(Br)c1
     RDKit          3D

 14 14  0  0  0  0  0  0  0  0999 V2000
    7.8016    6.1596   21.5166 C   0  0  0  0  0  0  0  0  0  0  0  0
    8.2451    5.6944   22.5365 C   0  0  0  0  0  0  0  0  0  0  0  0
    8.7894    5.1283   23.7788 C   0  0  0  0  0  0  0  0  0  0  0  0
   10.1334    4.4001   23.5229 C   0  0  2  0  0  0  0  0  0  0  0  0
   11.1256    5.2684   22.8473 N   0  0  0  0  0  0  0  0  0  0  0  0
   12.5189    5.0398   23.2533 C   0  0  0  0  0  0  0  0  0  0  0  0
    9.9959    3.0451   22.8301 C   0  0  0  0  0  0  0  0  0  0  0  0
    8.8658    2.8003   22.0296 C   0  0  0  0  0  0  0  0  0  0  0  0
    8.6955    1.5597   21.4050 C   0  0  0  0  0  0  0  0  0  0  0  0
    7.2821    1.2683   20.4078 Cl  0  0  0  0  0  0  0  0  0  0  0  0
    9.6501    0.5502   21.5743 C   0  0  0  0  0  0  0  0  0  0  0  0
   10.7762    0.7804   22.3714 C   0  0  0  0  0  0  0  0  0  0  0  0
   12.1115   -0.5798   22.5912 Br  0  0  0  0  0  0  0  0  0  0  0  0
   10.9431    2.0155   23.0044 C   0  0  0  0  0  0  0  0  0  0  0  0
  1  2  3  0
  2  3  1  0
  4  3  1  6
  4  5  1  0
  4  7  1  0
  5  6  1  0
  7  8  2  0
  8  9  1  0
  9 10  1  0
  9 11  2  0
 11 12  1  0
 12 13  1  0
 12 14  2  0
 14  7  1  0
M  END
>  <Hit>  (315) 
Mpro-x0946_0

>  <Receptor>  (315) 
Mpro-x0387_0

>  <SCORE>  (315) 
-10.376300000000001

>  <SCORE.norm>  (315) 
-0.74116599999999999

>  <SCORE.heavy>  (315) 
14

>  <OrigSmiles>  (315) 
C#CCC(NC)c1cc(Cl)cc(Br)c1

>  <SuCOS_Score>  (315) 
0.29759586605088523

>  <Max_SuCOS_Score>  (315) 
0.29759586605088523

>  <Cum_SuCOS_Score>  (315) 
3.1709306957996226

>  <TransFSScore_50nM>  (315) 
0.010978

>  <TransFSScore_1uM>  (315) 
0.0060920000000000002

>  <TransFSScore_10nM>  (315) 
0.0012440000000000001

>  <TransFSScore_200nM>  (315) 
0.0091439999999999994

>  <TransFSScore>  (315) 
0.0068644999999999999

>  <FeatureSteinScore>  (315) 
0.099570868887275107

$$$$
C#CCC(NC)c1ccc(Cl)cc1Br
     RDKit          3D

 14 14  0  0  0  0  0  0  0  0999 V2000
   10.1032   -0.1704   25.7743 C   0  0  0  0  0  0  0  0  0  0  0  0
    9.5015    0.0478   24.7528 C   0  0  0  0  0  0  0  0  0  0  0  0
    8.7680    0.3115   23.5068 C   0  0  0  0  0  0  0  0  0  0  0  0
    9.7190    0.6843   22.3358 C   0  0  1  0  0  0  0  0  0  0  0  0
    8.9854    0.9750   21.0807 N   0  0  0  0  0  0  0  0  0  0  0  0
    8.6005   -0.2344   20.3435 C   0  0  0  0  0  0  0  0  0  0  0  0
   10.5650    1.8979   22.7193 C   0  0  0  0  0  0  0  0  0  0  0  0
    9.9302    3.1453   22.8930 C   0  0  0  0  0  0  0  0  0  0  0  0
   10.6640    4.2857   23.2241 C   0  0  0  0  0  0  0  0  0  0  0  0
   12.0472    4.2007   23.3850 C   0  0  0  0  0  0  0  0  0  0  0  0
   12.9705    5.6326   23.8024 Cl  0  0  0  0  0  0  0  0  0  0  0  0
   12.6982    2.9766   23.2081 C   0  0  0  0  0  0  0  0  0  0  0  0
   11.9730    1.8259   22.8687 C   0  0  0  0  0  0  0  0  0  0  0  0
   12.9677    0.1970   22.5995 Br  0  0  0  0  0  0  0  0  0  0  0  0
  1  2  3  0
  2  3  1  0
  4  3  1  1
  4  5  1  0
  4  7  1  0
  5  6  1  0
  7  8  2  0
  8  9  1  0
  9 10  2  0
 10 11  1  0
 10 12  1  0
 12 13  2  0
 13 14  1  0
 13  7  1  0
M  END
>  <Hit>  (316) 
Mpro-x0946_0

>  <Receptor>  (316) 
Mpro-x1249_0

>  <SCORE>  (316) 
-10.366400000000001

>  <SCORE.norm>  (316) 
-0.74045899999999998

>  <SCORE.heavy>  (316) 
14

>  <OrigSmiles>  (316) 
C#CCC(NC)c1ccc(Cl)cc1Br

>  <SuCOS_Score>  (316) 
0.40863335491502417

>  <Max_SuCOS_Score>  (316) 
0.40863335491502417

>  <Cum_SuCOS_Score>  (316) 
4.0408575891645038

>  <TransFSScore_50nM>  (316) 
0.001176

>  <TransFSScore_1uM>  (316) 
0.0093679999999999996

>  <TransFSScore_10nM>  (316) 
0.00095600000000000004

>  <TransFSScore_200nM>  (316) 
0.043837000000000001

>  <TransFSScore>  (316) 
0.013834249999999999

>  <FeatureSteinScore>  (316) 
0.30943674679267408

$$$$
C#CCC(NCC)c1cc(Cl)cc(Br)c1
     RDKit          3D

 15 15  0  0  0  0  0  0  0  0999 V2000
   14.1301    6.9941   21.9375 C   0  0  0  0  0  0  0  0  0  0  0  0
   14.0612    5.8442   22.2927 C   0  0  0  0  0  0  0  0  0  0  0  0
   13.9776    4.4433   22.7293 C   0  0  0  0  0  0  0  0  0  0  0  0
   12.6128    4.1407   23.3884 C   0  0  2  0  0  0  0  0  0  0  0  0
   12.4363    4.9178   24.6330 N   0  0  0  0  0  0  0  0  0  0  0  0
   11.6189    6.1314   24.4818 C   0  0  0  0  0  0  0  0  0  0  0  0
   10.1710    5.8255   24.8428 C   0  0  0  0  0  0  0  0  0  0  0  0
   12.3042    2.6561   23.5777 C   0  0  0  0  0  0  0  0  0  0  0  0
   11.3075    2.2069   24.4671 C   0  0  0  0  0  0  0  0  0  0  0  0
   11.0351    0.8395   24.5884 C   0  0  0  0  0  0  0  0  0  0  0  0
    9.7966    0.2899   25.7023 Cl  0  0  0  0  0  0  0  0  0  0  0  0
   11.7393   -0.0903   23.8147 C   0  0  0  0  0  0  0  0  0  0  0  0
   12.7168    0.3471   22.9148 C   0  0  0  0  0  0  0  0  0  0  0  0
   13.6617   -0.9075   21.8129 Br  0  0  0  0  0  0  0  0  0  0  0  0
   12.9963    1.7116   22.7985 C   0  0  0  0  0  0  0  0  0  0  0  0
  1  2  3  0
  2  3  1  0
  4  3  1  1
  4  5  1  0
  4  8  1  0
  5  6  1  0
  6  7  1  0
  8  9  2  0
  9 10  1  0
 10 11  1  0
 10 12  2  0
 12 13  1  0
 13 14  1  0
 13 15  2  0
 15  8  1  0
M  END
>  <Hit>  (317) 
Mpro-x0946_0

>  <Receptor>  (317) 
Mpro-x0874_0

>  <SCORE>  (317) 
-10.616300000000001

>  <SCORE.norm>  (317) 
-0.70775500000000002

>  <SCORE.heavy>  (317) 
15

>  <OrigSmiles>  (317) 
C#CCC(NCC)c1cc(Cl)cc(Br)c1

>  <SuCOS_Score>  (317) 
0.50226115803302596

>  <Max_SuCOS_Score>  (317) 
0.51679352622233732

>  <Cum_SuCOS_Score>  (317) 
3.8781491672810877

>  <TransFSScore_50nM>  (317) 
0.00063000000000000003

>  <TransFSScore_1uM>  (317) 
0.0078250000000000004

>  <TransFSScore_10nM>  (317) 
0.00018000000000000001

>  <TransFSScore_200nM>  (317) 
0.0020890000000000001

>  <TransFSScore>  (317) 
0.0026810000000000002

>  <FeatureSteinScore>  (317) 
0.37636583691312381

$$$$
C#CCC(NCC)c1ccc(Br)cc1Cl
     RDKit          3D

 15 15  0  0  0  0  0  0  0  0999 V2000
    8.9683    8.5584   25.6832 C   0  0  0  0  0  0  0  0  0  0  0  0
    9.7884    7.6993   25.4771 C   0  0  0  0  0  0  0  0  0  0  0  0
   10.7888    6.6514   25.2289 C   0  0  0  0  0  0  0  0  0  0  0  0
   10.3122    5.6551   24.1468 C   0  0  1  0  0  0  0  0  0  0  0  0
    9.9290    6.3239   22.8871 N   0  0  0  0  0  0  0  0  0  0  0  0
    8.4921    6.6275   22.7444 C   0  0  0  0  0  0  0  0  0  0  0  0
    7.6738    5.3896   22.3705 C   0  0  0  0  0  0  0  0  0  0  0  0
   11.1624    4.4056   23.8692 C   0  0  0  0  0  0  0  0  0  0  0  0
   10.5386    3.1664   24.1310 C   0  0  0  0  0  0  0  0  0  0  0  0
   11.1923    1.9558   23.8919 C   0  0  0  0  0  0  0  0  0  0  0  0
   12.4859    1.9526   23.3725 C   0  0  0  0  0  0  0  0  0  0  0  0
   13.3844    0.3002   22.9950 Br  0  0  0  0  0  0  0  0  0  0  0  0
   13.1252    3.1606   23.1000 C   0  0  0  0  0  0  0  0  0  0  0  0
   12.4833    4.3848   23.3309 C   0  0  0  0  0  0  0  0  0  0  0  0
   13.4160    5.8132   22.8955 Cl  0  0  0  0  0  0  0  0  0  0  0  0
  1  2  3  0
  2  3  1  0
  4  3  1  1
  4  5  1  0
  4  8  1  0
  5  6  1  0
  6  7  1  0
  8  9  2  0
  9 10  1  0
 10 11  2  0
 11 12  1  0
 11 13  1  0
 13 14  2  0
 14 15  1  0
 14  8  1  0
M  END
>  <Hit>  (318) 
Mpro-x0946_0

>  <Receptor>  (318) 
Mpro-x1249_0

>  <SCORE>  (318) 
-11.7491

>  <SCORE.norm>  (318) 
-0.78327599999999997

>  <SCORE.heavy>  (318) 
15

>  <OrigSmiles>  (318) 
C#CCC(NCC)c1ccc(Br)cc1Cl

>  <SuCOS_Score>  (318) 
0.5240674158600932

>  <Max_SuCOS_Score>  (318) 
0.5240674158600932

>  <Cum_SuCOS_Score>  (318) 
2.7377001967844246

>  <TransFSScore_50nM>  (318) 
0.00043100000000000001

>  <TransFSScore_1uM>  (318) 
0.0067590000000000003

>  <TransFSScore_10nM>  (318) 
0.00025300000000000002

>  <TransFSScore_200nM>  (318) 
0.0046109999999999996

>  <TransFSScore>  (318) 
0.0030134999999999997

>  <FeatureSteinScore>  (318) 
0.23944165805696618

$$$$
C#CCC(NN)c1ccc(Cl)cc1Br
     RDKit          3D

 14 14  0  0  0  0  0  0  0  0999 V2000
   10.3337   -4.7088   24.8604 C   0  0  0  0  0  0  0  0  0  0  0  0
   10.1231   -3.5525   24.5925 C   0  0  0  0  0  0  0  0  0  0  0  0
    9.8676   -2.1433   24.2623 C   0  0  0  0  0  0  0  0  0  0  0  0
   10.6713   -1.7027   23.0127 C   0  0  1  0  0  0  0  0  0  0  0  0
   10.0070   -2.1133   21.7593 N   0  0  0  0  0  0  0  0  0  0  0  0
    8.7263   -1.5265   21.6568 N   0  0  0  0  0  0  0  0  0  0  0  0
   11.0239   -0.2108   22.9864 C   0  0  0  0  0  0  0  0  0  0  0  0
   10.0278    0.7615   23.2212 C   0  0  0  0  0  0  0  0  0  0  0  0
   10.3281    2.1243   23.1758 C   0  0  0  0  0  0  0  0  0  0  0  0
   11.6260    2.5424   22.8822 C   0  0  0  0  0  0  0  0  0  0  0  0
   12.0031    4.2546   22.8230 Cl  0  0  0  0  0  0  0  0  0  0  0  0
   12.6232    1.5982   22.6255 C   0  0  0  0  0  0  0  0  0  0  0  0
   12.3328    0.2279   22.6641 C   0  0  0  0  0  0  0  0  0  0  0  0
   13.7606   -0.9971   22.2434 Br  0  0  0  0  0  0  0  0  0  0  0  0
  1  2  3  0
  2  3  1  0
  4  3  1  1
  4  5  1  0
  4  7  1  0
  5  6  1  0
  7  8  2  0
  8  9  1  0
  9 10  2  0
 10 11  1  0
 10 12  1  0
 12 13  2  0
 13 14  1  0
 13  7  1  0
M  END
>  <Hit>  (319) 
Mpro-x0946_0

>  <Receptor>  (319) 
Mpro-x0305_0

>  <SCORE>  (319) 
-10.9885

>  <SCORE.norm>  (319) 
-0.78489299999999995

>  <SCORE.heavy>  (319) 
14

>  <OrigSmiles>  (319) 
C#CCC(NN)c1ccc(Cl)cc1Br

>  <SuCOS_Score>  (319) 
0.34989802471262638

>  <Max_SuCOS_Score>  (319) 
0.38332839198230295

>  <Cum_SuCOS_Score>  (319) 
5.1162458050378667

>  <TransFSScore_50nM>  (319) 
0.0072259999999999998

>  <TransFSScore_1uM>  (319) 
0.028035000000000001

>  <TransFSScore_10nM>  (319) 
0.037737

>  <TransFSScore_200nM>  (319) 
0.288522

>  <TransFSScore>  (319) 
0.090380000000000002

>  <FeatureSteinScore>  (319) 
0.43802627902348451

$$$$
C#CCC(O)C12CCC(CC1)N2
     RDKit          3D

 12 13  0  0  0  0  0  0  0  0999 V2000
   10.5256   -2.8324   24.3474 C   0  0  0  0  0  0  0  0  0  0  0  0
    9.9955   -3.9149   24.3757 C   0  0  0  0  0  0  0  0  0  0  0  0
    9.3495   -5.2370   24.4071 C   0  0  0  0  0  0  0  0  0  0  0  0
    9.3590   -5.8489   25.8264 C   0  0  1  0  0  0  0  0  0  0  0  0
   10.6251   -5.6535   26.4040 O   0  0  0  0  0  0  0  0  0  0  0  0
    8.2822   -5.2743   26.7913 C   0  0  1  0  0  0  0  0  0  0  0  0
    8.1764   -6.0784   28.1115 C   0  0  0  0  0  0  0  0  0  0  0  0
    6.7641   -5.7139   28.5773 C   0  0  0  0  0  0  0  0  0  0  0  0
    6.3081   -4.7709   27.4497 C   0  0  1  0  0  0  0  0  0  0  0  0
    7.0286   -3.4258   27.6174 C   0  0  0  0  0  0  0  0  0  0  0  0
    8.4496   -3.7816   27.1606 C   0  0  0  0  0  0  0  0  0  0  0  0
    6.9302   -5.3165   26.2555 N   0  0  0  0  0  0  0  0  0  0  0  0
  1  2  3  0
  2  3  1  0
  3  4  1  0
  4  5  1  1
  6  4  1  0
  6  7  1  1
  7  8  1  0
  9  8  1  1
  9 10  1  0
  9 12  1  0
 10 11  1  0
 11  6  1  0
 12  6  1  0
M  END
>  <Hit>  (320) 
Mpro-x0991_0

>  <Receptor>  (320) 
Mpro-x0305_0

>  <SCORE>  (320) 
-6.6205600000000002

>  <SCORE.norm>  (320) 
-0.55171400000000004

>  <SCORE.heavy>  (320) 
12

>  <OrigSmiles>  (320) 
C#CCC(O)C12CCC(CC1)N2

>  <SuCOS_Score>  (320) 
0.41293991709297384

>  <Max_SuCOS_Score>  (320) 
0.41293991709297384

>  <Cum_SuCOS_Score>  (320) 
1.7215734693653468

>  <TransFSScore_50nM>  (320) 
0.0065189999999999996

>  <TransFSScore_1uM>  (320) 
0.092508999999999994

>  <TransFSScore_10nM>  (320) 
0.0052090000000000001

>  <TransFSScore_200nM>  (320) 
0.097778000000000004

>  <TransFSScore>  (320) 
0.05050375

>  <FeatureSteinScore>  (320) 
0.25142628669442202

$$$$
C#CCC(O)C1CC2CCC1N2
     RDKit          3D

 12 13  0  0  0  0  0  0  0  0999 V2000
   10.9536   -5.3848   26.0030 C   0  0  0  0  0  0  0  0  0  0  0  0
   10.0866   -4.7109   25.5054 C   0  0  0  0  0  0  0  0  0  0  0  0
    9.0281   -3.8879   24.8980 C   0  0  0  0  0  0  0  0  0  0  0  0
    9.4325   -2.4032   24.8626 C   0  0  1  0  0  0  0  0  0  0  0  0
    9.8581   -2.0070   26.1443 O   0  0  0  0  0  0  0  0  0  0  0  0
   10.5527   -2.1750   23.8091 C   0  0  2  0  0  0  0  0  0  0  0  0
   11.1558   -0.7541   23.7707 C   0  0  0  0  0  0  0  0  0  0  0  0
   11.0456   -0.4237   22.2684 C   0  0  2  0  0  0  0  0  0  0  0  0
    9.5713   -0.1017   21.9521 C   0  0  0  0  0  0  0  0  0  0  0  0
    8.9500   -1.5050   21.9384 C   0  0  0  0  0  0  0  0  0  0  0  0
   10.1619   -2.3770   22.3193 C   0  0  1  0  0  0  0  0  0  0  0  0
   11.2523   -1.7117   21.6211 N   0  0  0  0  0  0  0  0  0  0  0  0
  1  2  3  0
  2  3  1  0
  3  4  1  0
  4  5  1  1
  6  4  1  0
  6  7  1  6
  8  7  1  1
  8  9  1  0
  9 10  1  0
 11 10  1  1
 11 12  1  0
 11  6  1  0
 12  8  1  0
M  END
>  <Hit>  (321) 
Mpro-x0991_0

>  <Receptor>  (321) 
Mpro-x0387_0

>  <SCORE>  (321) 
-8.9651300000000003

>  <SCORE.norm>  (321) 
-0.74709400000000004

>  <SCORE.heavy>  (321) 
12

>  <OrigSmiles>  (321) 
C#CCC(O)C1CC2CCC1N2

>  <SuCOS_Score>  (321) 
0.26829417256607352

>  <Max_SuCOS_Score>  (321) 
0.31202426805811523

>  <Cum_SuCOS_Score>  (321) 
3.4583565305230466

>  <TransFSScore_50nM>  (321) 
0.038813

>  <TransFSScore_1uM>  (321) 
0.30975599999999998

>  <TransFSScore_10nM>  (321) 
0.017992999999999999

>  <TransFSScore_200nM>  (321) 
0.20668400000000001

>  <TransFSScore>  (321) 
0.14331149999999998

>  <FeatureSteinScore>  (321) 
0.31111373668436643

$$$$
C#CCC(O)CC12CCC(CC1)N2
     RDKit          3D

 13 14  0  0  0  0  0  0  0  0999 V2000
    9.8528   -5.0392   26.5709 C   0  0  0  0  0  0  0  0  0  0  0  0
    9.3400   -4.9303   25.4854 C   0  0  0  0  0  0  0  0  0  0  0  0
    8.7140   -4.7978   24.1581 C   0  0  0  0  0  0  0  0  0  0  0  0
    8.9197   -3.3902   23.5669 C   0  0  2  0  0  0  0  0  0  0  0  0
    8.2689   -3.2997   22.3241 O   0  0  0  0  0  0  0  0  0  0  0  0
   10.4218   -3.0599   23.3944 C   0  0  0  0  0  0  0  0  0  0  0  0
   10.7369   -1.6508   22.8299 C   0  0  1  0  0  0  0  0  0  0  0  0
   10.2925   -0.5385   23.8065 C   0  0  0  0  0  0  0  0  0  0  0  0
   10.1205    0.6531   22.8583 C   0  0  0  0  0  0  0  0  0  0  0  0
   10.5108    0.0237   21.5167 C   0  0  1  0  0  0  0  0  0  0  0  0
   12.0394   -0.1725   21.4969 C   0  0  0  0  0  0  0  0  0  0  0  0
   12.2068   -1.3768   22.4298 C   0  0  0  0  0  0  0  0  0  0  0  0
    9.9761   -1.3233   21.6328 N   0  0  0  0  0  0  0  0  0  0  0  0
  1  2  3  0
  2  3  1  0
  3  4  1  0
  4  5  1  6
  4  6  1  0
  7  6  1  1
  7  8  1  0
  8  9  1  0
 10  9  1  1
 10 11  1  0
 10 13  1  0
 11 12  1  0
 12  7  1  0
 13  7  1  0
M  END
>  <Hit>  (322) 
Mpro-x0991_0

>  <Receptor>  (322) 
Mpro-x1249_0

>  <SCORE>  (322) 
-10.005100000000001

>  <SCORE.norm>  (322) 
-0.76962299999999995

>  <SCORE.heavy>  (322) 
13

>  <OrigSmiles>  (322) 
C#CCC(O)CC12CCC(CC1)N2

>  <SuCOS_Score>  (322) 
0.4631155398611565

>  <Max_SuCOS_Score>  (322) 
0.4631155398611565

>  <Cum_SuCOS_Score>  (322) 
3.9753119494861893

>  <TransFSScore_50nM>  (322) 
0.001207

>  <TransFSScore_1uM>  (322) 
0.17976500000000001

>  <TransFSScore_10nM>  (322) 
0.0032910000000000001

>  <TransFSScore_200nM>  (322) 
0.21768299999999999

>  <TransFSScore>  (322) 
0.10048650000000001

>  <FeatureSteinScore>  (322) 
0.45070626901562205

$$$$
C#CCC(O)[C@@H]1C[C@@H]2CC[C@H]1N2
     RDKit          3D

 12 13  0  0  0  0  0  0  0  0999 V2000
   10.3448   -5.5968   25.8356 C   0  0  0  0  0  0  0  0  0  0  0  0
    9.5447   -4.9030   25.2597 C   0  0  0  0  0  0  0  0  0  0  0  0
    8.5672   -4.0561   24.5569 C   0  0  0  0  0  0  0  0  0  0  0  0
    8.9858   -2.5705   24.6099 C   0  0  1  0  0  0  0  0  0  0  0  0
    9.2831   -2.1639   25.9276 O   0  0  0  0  0  0  0  0  0  0  0  0
   10.1563   -2.2857   23.6232 C   0  0  2  0  0  0  0  0  0  0  0  0
   10.8265   -0.8984   23.7267 C   0  0  0  0  0  0  0  0  0  0  0  0
   10.7971   -0.4424   22.2539 C   0  0  2  0  0  0  0  0  0  0  0  0
    9.3545   -0.0218   21.9091 C   0  0  0  0  0  0  0  0  0  0  0  0
    8.6693   -1.3861   21.7536 C   0  0  0  0  0  0  0  0  0  0  0  0
    9.8211   -2.3463   22.1076 C   0  0  1  0  0  0  0  0  0  0  0  0
   10.9705   -1.6822   21.5103 N   0  0  0  0  0  0  0  0  0  0  0  0
  1  2  3  0
  2  3  1  0
  3  4  1  0
  4  5  1  1
  6  4  1  0
  6  7  1  1
  8  7  1  1
  8  9  1  0
  9 10  1  0
 11 10  1  1
 11 12  1  0
 11  6  1  0
 12  8  1  0
M  END
>  <Hit>  (323) 
Mpro-x0991_0

>  <Receptor>  (323) 
Mpro-x0874_0

>  <SCORE>  (323) 
-10.0296

>  <SCORE.norm>  (323) 
-0.83580299999999996

>  <SCORE.heavy>  (323) 
12

>  <OrigSmiles>  (323) 
C#CCC(O)[C@@H]1C[C@@H]2CC[C@H]1N2

>  <SuCOS_Score>  (323) 
0.38598902852565836

>  <Max_SuCOS_Score>  (323) 
0.38598902852565836

>  <Cum_SuCOS_Score>  (323) 
3.5864822917839807

>  <TransFSScore_50nM>  (323) 
0.033211999999999998

>  <TransFSScore_1uM>  (323) 
0.291078

>  <TransFSScore_10nM>  (323) 
0.03322

>  <TransFSScore_200nM>  (323) 
0.22550100000000001

>  <TransFSScore>  (323) 
0.14575274999999999

>  <FeatureSteinScore>  (323) 
0.39201549644058581

$$$$
C#CCCC(=O)C(C)(O)C1C2CNC1C2
     RDKit          3D

 15 16  0  0  0  0  0  0  0  0999 V2000
    7.5005   -4.9993   28.0270 C   0  0  0  0  0  0  0  0  0  0  0  0
    8.5597   -5.0564   27.4542 C   0  0  0  0  0  0  0  0  0  0  0  0
    9.8491   -5.1261   26.7573 C   0  0  0  0  0  0  0  0  0  0  0  0
    9.6365   -5.4079   25.2645 C   0  0  0  0  0  0  0  0  0  0  0  0
    8.9864   -4.2511   24.5358 C   0  0  0  0  0  0  0  0  0  0  0  0
    7.9551   -4.4263   23.9000 O   0  0  0  0  0  0  0  0  0  0  0  0
    9.6168   -2.8613   24.5600 C   0  0  1  0  0  0  0  0  0  0  0  0
    9.1706   -2.0407   25.7944 C   0  0  0  0  0  0  0  0  0  0  0  0
   11.0156   -3.0225   24.6390 O   0  0  0  0  0  0  0  0  0  0  0  0
    9.3503   -1.9876   23.2835 C   0  0  1  0  0  0  0  0  0  0  0  0
   10.1085   -0.6733   23.0777 C   0  0  2  0  0  0  0  0  0  0  0  0
    9.3614   -0.1689   21.8306 C   0  0  0  0  0  0  0  0  0  0  0  0
    9.3395   -1.4104   21.0160 N   0  0  0  0  0  0  0  0  0  0  0  0
   10.0547   -2.2931   21.9529 C   0  0  1  0  0  0  0  0  0  0  0  0
   11.2306   -1.4151   22.3613 C   0  0  0  0  0  0  0  0  0  0  0  0
  1  2  3  0
  2  3  1  0
  3  4  1  0
  4  5  1  0
  5  6  2  0
  5  7  1  0
  7  8  1  1
  7  9  1  0
 10  7  1  1
 10 11  1  0
 11 12  1  6
 12 13  1  0
 13 14  1  0
 14 15  1  1
 14 10  1  0
 15 11  1  0
M  END
>  <Hit>  (324) 
Mpro-x0991_0

>  <Receptor>  (324) 
Mpro-x0305_0

>  <SCORE>  (324) 
-10.2554

>  <SCORE.norm>  (324) 
-0.68369100000000005

>  <SCORE.heavy>  (324) 
15

>  <OrigSmiles>  (324) 
C#CCCC(=O)C(C)(O)C1C2CNC1C2

>  <SuCOS_Score>  (324) 
0.41545968739724715

>  <Max_SuCOS_Score>  (324) 
0.42794117183660885

>  <Cum_SuCOS_Score>  (324) 
3.8763020726615172

>  <TransFSScore_50nM>  (324) 
0.097475000000000006

>  <TransFSScore_1uM>  (324) 
0.120742

>  <TransFSScore_10nM>  (324) 
0.24091899999999999

>  <TransFSScore_200nM>  (324) 
0.73063199999999995

>  <TransFSScore>  (324) 
0.29744199999999998

>  <FeatureSteinScore>  (324) 
0.41906743160591003

$$$$
C#CCCC(=O)C12CCC(CC1)N2
     RDKit          3D

 13 14  0  0  0  0  0  0  0  0999 V2000
   10.4528   -2.2385   24.5580 C   0  0  0  0  0  0  0  0  0  0  0  0
    9.8386   -3.2725   24.4729 C   0  0  0  0  0  0  0  0  0  0  0  0
    9.0890   -4.5339   24.3687 C   0  0  0  0  0  0  0  0  0  0  0  0
    9.7212   -5.6081   25.2627 C   0  0  0  0  0  0  0  0  0  0  0  0
    9.4295   -5.4013   26.7326 C   0  0  0  0  0  0  0  0  0  0  0  0
   10.3348   -5.1429   27.5141 O   0  0  0  0  0  0  0  0  0  0  0  0
    8.0060   -5.5111   27.2412 C   0  0  2  0  0  0  0  0  0  0  0  0
    7.0279   -6.1311   26.2192 C   0  0  0  0  0  0  0  0  0  0  0  0
    5.8965   -6.6100   27.1400 C   0  0  0  0  0  0  0  0  0  0  0  0
    6.4263   -6.1848   28.5231 C   0  0  2  0  0  0  0  0  0  0  0  0
    6.2827   -4.6552   28.6431 C   0  0  0  0  0  0  0  0  0  0  0  0
    7.4157   -4.1695   27.7277 C   0  0  0  0  0  0  0  0  0  0  0  0
    7.8630   -6.3782   28.4053 N   0  0  0  0  0  0  0  0  0  0  0  0
  1  2  3  0
  2  3  1  0
  3  4  1  0
  4  5  1  0
  5  6  2  0
  7  5  1  6
  7  8  1  0
  8  9  1  0
 10  9  1  6
 10 11  1  0
 10 13  1  0
 11 12  1  0
 12  7  1  0
 13  7  1  0
M  END
>  <Hit>  (325) 
Mpro-x0991_0

>  <Receptor>  (325) 
Mpro-x0305_0

>  <SCORE>  (325) 
-4.7269500000000004

>  <SCORE.norm>  (325) 
-0.36361199999999999

>  <SCORE.heavy>  (325) 
13

>  <OrigSmiles>  (325) 
C#CCCC(=O)C12CCC(CC1)N2

>  <SuCOS_Score>  (325) 
0.41104594245034232

>  <Max_SuCOS_Score>  (325) 
0.41104594245034232

>  <Cum_SuCOS_Score>  (325) 
1.8081474553365897

>  <TransFSScore_50nM>  (325) 
0.003336

>  <TransFSScore_1uM>  (325) 
0.47060200000000002

>  <TransFSScore_10nM>  (325) 
0.004254

>  <TransFSScore_200nM>  (325) 
0.14981800000000001

>  <TransFSScore>  (325) 
0.15700249999999999

>  <FeatureSteinScore>  (325) 
0.2625460235155021

$$$$
C#CCCC(=O)C1CC2CCC1N2
     RDKit          3D

 13 14  0  0  0  0  0  0  0  0999 V2000
   12.4441   -1.1998   21.4680 C   0  0  0  0  0  0  0  0  0  0  0  0
   11.2641   -1.2350   21.7123 C   0  0  0  0  0  0  0  0  0  0  0  0
    9.8265   -1.2760   22.0127 C   0  0  0  0  0  0  0  0  0  0  0  0
    9.3385   -2.7132   22.2207 C   0  0  0  0  0  0  0  0  0  0  0  0
    9.9688   -3.3374   23.4394 C   0  0  0  0  0  0  0  0  0  0  0  0
   11.0530   -2.9272   23.8292 O   0  0  0  0  0  0  0  0  0  0  0  0
    9.2475   -4.4275   24.2049 C   0  0  1  0  0  0  0  0  0  0  0  0
   10.1492   -5.1120   25.2529 C   0  0  0  0  0  0  0  0  0  0  0  0
    9.3765   -4.8196   26.5488 C   0  0  2  0  0  0  0  0  0  0  0  0
    8.1173   -5.7062   26.5865 C   0  0  0  0  0  0  0  0  0  0  0  0
    7.2237   -5.0051   25.5591 C   0  0  0  0  0  0  0  0  0  0  0  0
    8.1348   -3.8494   25.1045 C   0  0  1  0  0  0  0  0  0  0  0  0
    8.8606   -3.4835   26.3091 N   0  0  0  0  0  0  0  0  0  0  0  0
  1  2  3  0
  2  3  1  0
  3  4  1  0
  4  5  1  0
  5  6  2  0
  7  5  1  1
  7  8  1  0
  9  8  1  6
  9 10  1  0
 10 11  1  0
 12 11  1  1
 12 13  1  0
 12  7  1  0
 13  9  1  0
M  END
>  <Hit>  (326) 
Mpro-x0991_0

>  <Receptor>  (326) 
Mpro-x0874_0

>  <SCORE>  (326) 
-4.4454000000000002

>  <SCORE.norm>  (326) 
-0.34195399999999998

>  <SCORE.heavy>  (326) 
13

>  <OrigSmiles>  (326) 
C#CCCC(=O)C1CC2CCC1N2

>  <SuCOS_Score>  (326) 
0.47092153044997465

>  <Max_SuCOS_Score>  (326) 
0.47092153044997465

>  <Cum_SuCOS_Score>  (326) 
3.3604136583854003

>  <TransFSScore_50nM>  (326) 
0.018703999999999998

>  <TransFSScore_1uM>  (326) 
0.33604099999999998

>  <TransFSScore_10nM>  (326) 
0.012345

>  <TransFSScore_200nM>  (326) 
0.41727399999999998

>  <TransFSScore>  (326) 
0.19609099999999999

>  <FeatureSteinScore>  (326) 
0.39631248040627448

$$$$
C#CCCC(=O)CC12CCC(CC1)N2
     RDKit          3D

 14 15  0  0  0  0  0  0  0  0999 V2000
   11.5564   -0.6133   23.3945 C   0  0  0  0  0  0  0  0  0  0  0  0
   11.1864   -1.7209   23.6938 C   0  0  0  0  0  0  0  0  0  0  0  0
   10.7425   -3.0710   24.0630 C   0  0  0  0  0  0  0  0  0  0  0  0
    9.2542   -3.0874   24.4273 C   0  0  0  0  0  0  0  0  0  0  0  0
    8.7512   -4.4831   24.6919 C   0  0  0  0  0  0  0  0  0  0  0  0
    8.1723   -5.0935   23.8062 O   0  0  0  0  0  0  0  0  0  0  0  0
    9.0553   -5.1486   26.0124 C   0  0  0  0  0  0  0  0  0  0  0  0
    7.8170   -5.4220   26.9032 C   0  0  2  0  0  0  0  0  0  0  0  0
    6.6629   -6.2023   26.2304 C   0  0  0  0  0  0  0  0  0  0  0  0
    5.8988   -6.7216   27.4573 C   0  0  0  0  0  0  0  0  0  0  0  0
    6.7439   -6.1498   28.6130 C   0  0  2  0  0  0  0  0  0  0  0  0
    6.4619   -4.6404   28.7077 C   0  0  0  0  0  0  0  0  0  0  0  0
    7.2239   -4.1150   27.4848 C   0  0  0  0  0  0  0  0  0  0  0  0
    8.1038   -6.2082   28.0980 N   0  0  0  0  0  0  0  0  0  0  0  0
  1  2  3  0
  2  3  1  0
  3  4  1  0
  4  5  1  0
  5  6  2  0
  5  7  1  0
  8  7  1  6
  8  9  1  0
  9 10  1  0
 11 10  1  6
 11 12  1  0
 11 14  1  0
 12 13  1  0
 13  8  1  0
 14  8  1  0
M  END
>  <Hit>  (327) 
Mpro-x0991_0

>  <Receptor>  (327) 
Mpro-x0305_0

>  <SCORE>  (327) 
-4.4856199999999999

>  <SCORE.norm>  (327) 
-0.32040099999999999

>  <SCORE.heavy>  (327) 
14

>  <OrigSmiles>  (327) 
C#CCCC(=O)CC12CCC(CC1)N2

>  <SuCOS_Score>  (327) 
0.37213487038096033

>  <Max_SuCOS_Score>  (327) 
0.37213487038096033

>  <Cum_SuCOS_Score>  (327) 
2.8238914911825703

>  <TransFSScore_50nM>  (327) 
0.0079080000000000001

>  <TransFSScore_1uM>  (327) 
0.215723

>  <TransFSScore_10nM>  (327) 
0.0069639999999999997

>  <TransFSScore_200nM>  (327) 
0.095371999999999998

>  <TransFSScore>  (327) 
0.081491750000000002

>  <FeatureSteinScore>  (327) 
0.23372274479192329

$$$$
C#CCCC(=O)N1C2CCC1CC2
     RDKit          3D

 13 14  0  0  0  0  0  0  0  0999 V2000
   10.2603   -2.6153   24.0882 C   0  0  0  0  0  0  0  0  0  0  0  0
    9.5995   -3.6224   24.0393 C   0  0  0  0  0  0  0  0  0  0  0  0
    8.7936   -4.8516   23.9795 C   0  0  0  0  0  0  0  0  0  0  0  0
    9.1255   -5.7673   25.1611 C   0  0  0  0  0  0  0  0  0  0  0  0
    8.5265   -5.2368   26.4396 C   0  0  0  0  0  0  0  0  0  0  0  0
    9.2551   -5.0830   27.4112 O   0  0  0  0  0  0  0  0  0  0  0  0
    7.1280   -4.8288   26.4867 N   0  0  0  0  0  0  0  0  0  0  0  0
    6.5907   -4.5248   27.8167 C   0  0  1  0  0  0  0  0  0  0  0  0
    5.1171   -4.1859   27.5101 C   0  0  0  0  0  0  0  0  0  0  0  0
    4.8092   -5.1805   26.3764 C   0  0  0  0  0  0  0  0  0  0  0  0
    6.1663   -5.9013   26.2242 C   0  0  2  0  0  0  0  0  0  0  0  0
    6.3164   -6.8618   27.4241 C   0  0  0  0  0  0  0  0  0  0  0  0
    6.5960   -5.8790   28.5674 C   0  0  0  0  0  0  0  0  0  0  0  0
  1  2  3  0
  2  3  1  0
  3  4  1  0
  4  5  1  0
  5  6  2  0
  5  7  1  0
  7  8  1  0
  8  9  1  6
  9 10  1  0
 11 10  1  1
 11 12  1  0
 11  7  1  0
 12 13  1  0
 13  8  1  0
M  END
>  <Hit>  (328) 
Mpro-x0991_0

>  <Receptor>  (328) 
Mpro-x0874_0

>  <SCORE>  (328) 
-1.9444999999999999

>  <SCORE.norm>  (328) 
-0.14957699999999999

>  <SCORE.heavy>  (328) 
13

>  <OrigSmiles>  (328) 
C#CCCC(=O)N1C2CCC1CC2

>  <SuCOS_Score>  (328) 
0.50527532596108049

>  <Max_SuCOS_Score>  (328) 
0.50527532596108049

>  <Cum_SuCOS_Score>  (328) 
1.9032524299247062

>  <TransFSScore_50nM>  (328) 
0.0046880000000000003

>  <TransFSScore_1uM>  (328) 
0.11257

>  <TransFSScore_10nM>  (328) 
0.003101

>  <TransFSScore_200nM>  (328) 
0.025749999999999999

>  <TransFSScore>  (328) 
0.036527250000000004

>  <FeatureSteinScore>  (328) 
0.41553780089763609

$$$$
C#CCCC(=O)N1C2CCC1CNC2
     RDKit          3D

 14 15  0  0  0  0  0  0  0  0999 V2000
    8.8863   -0.9025   20.9344 C   0  0  0  0  0  0  0  0  0  0  0  0
    9.0485   -1.8257   21.6922 C   0  0  0  0  0  0  0  0  0  0  0  0
    9.2444   -2.9508   22.6170 C   0  0  0  0  0  0  0  0  0  0  0  0
    8.1235   -3.9857   22.4824 C   0  0  0  0  0  0  0  0  0  0  0  0
    8.3295   -5.1378   23.4293 C   0  0  0  0  0  0  0  0  0  0  0  0
    8.5710   -6.2827   22.9594 O   0  0  0  0  0  0  0  0  0  0  0  0
    8.3216   -4.9329   24.8520 N   0  0  0  0  0  0  0  0  0  0  0  0
    9.4019   -4.2952   25.5846 C   0  0  1  0  0  0  0  0  0  0  0  0
    8.8306   -2.9084   25.9155 C   0  0  0  0  0  0  0  0  0  0  0  0
    7.3114   -3.1140   25.9235 C   0  0  0  0  0  0  0  0  0  0  0  0
    7.1325   -4.6064   25.6192 C   0  0  2  0  0  0  0  0  0  0  0  0
    7.1706   -5.4471   26.9291 C   0  0  0  0  0  0  0  0  0  0  0  0
    8.5103   -6.0271   27.1914 N   0  0  0  0  0  0  0  0  0  0  0  0
    9.6424   -5.1204   26.8807 C   0  0  0  0  0  0  0  0  0  0  0  0
  1  2  3  0
  2  3  1  0
  3  4  1  0
  4  5  1  0
  5  6  2  0
  5  7  1  0
  7  8  1  0
  8  9  1  1
  9 10  1  0
 11 10  1  1
 11 12  1  0
 11  7  1  0
 12 13  1  0
 13 14  1  0
 14  8  1  0
M  END
>  <Hit>  (329) 
Mpro-x0991_0

>  <Receptor>  (329) 
Mpro-x0874_0

>  <SCORE>  (329) 
-4.5682099999999997

>  <SCORE.norm>  (329) 
-0.32630100000000001

>  <SCORE.heavy>  (329) 
14

>  <OrigSmiles>  (329) 
C#CCCC(=O)N1C2CCC1CNC2

>  <SuCOS_Score>  (329) 
0.47916442553764521

>  <Max_SuCOS_Score>  (329) 
0.47916442553764521

>  <Cum_SuCOS_Score>  (329) 
2.4211161785630582

>  <TransFSScore_50nM>  (329) 
0.036686999999999997

>  <TransFSScore_1uM>  (329) 
0.345721

>  <TransFSScore_10nM>  (329) 
0.0020140000000000002

>  <TransFSScore_200nM>  (329) 
0.14164599999999999

>  <TransFSScore>  (329) 
0.131517

>  <FeatureSteinScore>  (329) 
0.31972372305667651

$$$$
C#CCCC(=O)N1[C@H]2CC[C@@H]1CNC2
     RDKit          3D

 14 15  0  0  0  0  0  0  0  0999 V2000
    8.8437   -1.0753   21.2140 C   0  0  0  0  0  0  0  0  0  0  0  0
    9.0436   -1.9801   21.9850 C   0  0  0  0  0  0  0  0  0  0  0  0
    9.2900   -3.0819   22.9260 C   0  0  0  0  0  0  0  0  0  0  0  0
    8.1160   -4.0700   22.9497 C   0  0  0  0  0  0  0  0  0  0  0  0
    8.3296   -5.2435   23.8957 C   0  0  0  0  0  0  0  0  0  0  0  0
    8.9990   -6.1950   23.5122 O   0  0  0  0  0  0  0  0  0  0  0  0
    7.6350   -5.3394   25.1801 N   0  0  0  0  0  0  0  0  0  0  0  0
    8.4964   -5.9026   26.2347 C   0  0  1  0  0  0  0  0  0  0  0  0
    9.4135   -4.7493   26.6728 C   0  0  0  0  0  0  0  0  0  0  0  0
    8.5853   -3.4960   26.3886 C   0  0  0  0  0  0  0  0  0  0  0  0
    7.2769   -4.0477   25.7937 C   0  0  2  0  0  0  0  0  0  0  0  0
    6.2509   -4.3217   26.9283 C   0  0  0  0  0  0  0  0  0  0  0  0
    6.7957   -5.2297   27.9639 N   0  0  0  0  0  0  0  0  0  0  0  0
    7.5908   -6.3519   27.4142 C   0  0  0  0  0  0  0  0  0  0  0  0
  1  2  3  0
  2  3  1  0
  3  4  1  0
  4  5  1  0
  5  6  2  0
  5  7  1  0
  7  8  1  0
  8  9  1  1
  9 10  1  0
 11 10  1  1
 11 12  1  0
 11  7  1  0
 12 13  1  0
 13 14  1  0
 14  8  1  0
M  END
>  <Hit>  (330) 
Mpro-x0991_0

>  <Receptor>  (330) 
Mpro-x0874_0

>  <SCORE>  (330) 
-5.3238599999999998

>  <SCORE.norm>  (330) 
-0.380276

>  <SCORE.heavy>  (330) 
14

>  <OrigSmiles>  (330) 
C#CCCC(=O)N1[C@H]2CC[C@@H]1CNC2

>  <SuCOS_Score>  (330) 
0.48304982940470054

>  <Max_SuCOS_Score>  (330) 
0.48304982940470054

>  <Cum_SuCOS_Score>  (330) 
2.2696930446467345

>  <TransFSScore_50nM>  (330) 
0.01336

>  <TransFSScore_1uM>  (330) 
0.34314099999999997

>  <TransFSScore_10nM>  (330) 
0.00068800000000000003

>  <TransFSScore_200nM>  (330) 
0.085861999999999994

>  <TransFSScore>  (330) 
0.11076274999999999

>  <FeatureSteinScore>  (330) 
0.33670930838645374

$$$$
C#CCCC(=O)Nc1ccc(Br)cc1Cl
     RDKit          3D

 15 15  0  0  0  0  0  0  0  0999 V2000
    5.8502   -0.5127   17.4294 C   0  0  0  0  0  0  0  0  0  0  0  0
    5.6789    0.4337   18.1564 C   0  0  0  0  0  0  0  0  0  0  0  0
    5.4702    1.5858   19.0405 C   0  0  0  0  0  0  0  0  0  0  0  0
    5.2578    1.1211   20.4816 C   0  0  0  0  0  0  0  0  0  0  0  0
    6.4379    0.3251   20.9516 C   0  0  0  0  0  0  0  0  0  0  0  0
    6.3650   -0.9336   20.9771 O   0  0  0  0  0  0  0  0  0  0  0  0
    7.6384    0.9967   21.3643 N   0  0  0  0  0  0  0  0  0  0  0  0
    8.8793    0.3190   21.6286 C   0  0  0  0  0  0  0  0  0  0  0  0
    9.0174   -1.0550   21.3566 C   0  0  0  0  0  0  0  0  0  0  0  0
   10.2359   -1.7059   21.5804 C   0  0  0  0  0  0  0  0  0  0  0  0
   11.3330   -0.9894   22.0696 C   0  0  0  0  0  0  0  0  0  0  0  0
   13.0232   -1.8554   22.3413 Br  0  0  0  0  0  0  0  0  0  0  0  0
   11.2066    0.3751   22.3413 C   0  0  0  0  0  0  0  0  0  0  0  0
    9.9913    1.0330   22.1174 C   0  0  0  0  0  0  0  0  0  0  0  0
    9.8836    2.7496   22.4869 Cl  0  0  0  0  0  0  0  0  0  0  0  0
  1  2  3  0
  2  3  1  0
  3  4  1  0
  4  5  1  0
  5  6  2  0
  5  7  1  0
  7  8  1  0
  8  9  2  0
  9 10  1  0
 10 11  2  0
 11 12  1  0
 11 13  1  0
 13 14  2  0
 14 15  1  0
 14  8  1  0
M  END
>  <Hit>  (331) 
Mpro-x0946_0

>  <Receptor>  (331) 
Mpro-x0387_0

>  <SCORE>  (331) 
-8.4651899999999998

>  <SCORE.norm>  (331) 
-0.56434600000000001

>  <SCORE.heavy>  (331) 
15

>  <OrigSmiles>  (331) 
C#CCCC(=O)Nc1ccc(Br)cc1Cl

>  <SuCOS_Score>  (331) 
0.13406090002694693

>  <Max_SuCOS_Score>  (331) 
0.42004084073616904

>  <Cum_SuCOS_Score>  (331) 
4.6938631254954659

>  <TransFSScore_50nM>  (331) 
0.00061200000000000002

>  <TransFSScore_1uM>  (331) 
0.010160000000000001

>  <TransFSScore_10nM>  (331) 
0.0020379999999999999

>  <TransFSScore_200nM>  (331) 
0.009247

>  <TransFSScore>  (331) 
0.0055142500000000001

>  <FeatureSteinScore>  (331) 
0.2180559956624098

$$$$
C#CCCC(=O)Nc1cncc(Br)c1C
     RDKit          3D

 15 15  0  0  0  0  0  0  0  0999 V2000
   12.4146    0.4753   24.4299 C   0  0  0  0  0  0  0  0  0  0  0  0
   11.6234    0.6690   23.5412 C   0  0  0  0  0  0  0  0  0  0  0  0
   10.6604    0.9025   22.4560 C   0  0  0  0  0  0  0  0  0  0  0  0
    9.8005   -0.3377   22.1941 C   0  0  0  0  0  0  0  0  0  0  0  0
    8.9126   -0.1488   20.9990 C   0  0  0  0  0  0  0  0  0  0  0  0
    9.0442   -0.9057   20.0037 O   0  0  0  0  0  0  0  0  0  0  0  0
    7.9210    0.8832   20.9891 N   0  0  0  0  0  0  0  0  0  0  0  0
    7.0307    1.0693   19.8820 C   0  0  0  0  0  0  0  0  0  0  0  0
    7.4272    0.6720   18.6002 C   0  0  0  0  0  0  0  0  0  0  0  0
    6.6040    0.8554   17.5371 N   0  0  0  0  0  0  0  0  0  0  0  0
    5.3863    1.4367   17.6789 C   0  0  0  0  0  0  0  0  0  0  0  0
    4.9437    1.8592   18.9350 C   0  0  0  0  0  0  0  0  0  0  0  0
    3.2261    2.7064   19.0569 Br  0  0  0  0  0  0  0  0  0  0  0  0
    5.7653    1.6612   20.0622 C   0  0  0  0  0  0  0  0  0  0  0  0
    5.3178    2.1341   21.4235 C   0  0  0  0  0  0  0  0  0  0  0  0
  1  2  3  0
  2  3  1  0
  3  4  1  0
  4  5  1  0
  5  6  2  0
  5  7  1  0
  7  8  1  0
  8  9  2  0
  9 10  1  0
 10 11  2  0
 11 12  1  0
 12 13  1  0
 12 14  2  0
 14 15  1  0
 14  8  1  0
M  END
>  <Hit>  (332) 
Mpro-x0107_0

>  <Receptor>  (332) 
Mpro-x0387_0

>  <SCORE>  (332) 
-12.8818

>  <SCORE.norm>  (332) 
-0.85878699999999997

>  <SCORE.heavy>  (332) 
15

>  <OrigSmiles>  (332) 
C#CCCC(=O)Nc1cncc(Br)c1C

>  <SuCOS_Score>  (332) 
0.48358491021246963

>  <Max_SuCOS_Score>  (332) 
0.48358491021246963

>  <Cum_SuCOS_Score>  (332) 
4.8838232950851488

>  <TransFSScore_50nM>  (332) 
0.00033399999999999999

>  <TransFSScore_1uM>  (332) 
0.016462999999999998

>  <TransFSScore_10nM>  (332) 
0.0010920000000000001

>  <TransFSScore_200nM>  (332) 
0.0097509999999999993

>  <TransFSScore>  (332) 
0.0069099999999999995

>  <FeatureSteinScore>  (332) 
0.45794904251275703

$$$$
C#CCCC(=O)[C@@H]1C[C@@H]2CC[C@H]1N2
     RDKit          3D

 13 14  0  0  0  0  0  0  0  0999 V2000
    7.1315   -1.5215   24.0624 C   0  0  0  0  0  0  0  0  0  0  0  0
    7.6936   -2.3912   23.4452 C   0  0  0  0  0  0  0  0  0  0  0  0
    8.3820   -3.4500   22.6940 C   0  0  0  0  0  0  0  0  0  0  0  0
    8.2919   -4.7959   23.4194 C   0  0  0  0  0  0  0  0  0  0  0  0
    8.9975   -4.7529   24.7512 C   0  0  0  0  0  0  0  0  0  0  0  0
    9.9027   -3.9486   24.9210 O   0  0  0  0  0  0  0  0  0  0  0  0
    8.6124   -5.7322   25.8439 C   0  0  2  0  0  0  0  0  0  0  0  0
    7.0967   -5.9448   26.0596 C   0  0  0  0  0  0  0  0  0  0  0  0
    6.9644   -5.6623   27.5700 C   0  0  2  0  0  0  0  0  0  0  0  0
    7.0474   -4.1391   27.7811 C   0  0  0  0  0  0  0  0  0  0  0  0
    8.5478   -3.8874   27.5833 C   0  0  0  0  0  0  0  0  0  0  0  0
    9.0579   -5.3105   27.2664 C   0  0  1  0  0  0  0  0  0  0  0  0
    8.2238   -6.1440   28.1182 N   0  0  0  0  0  0  0  0  0  0  0  0
  1  2  3  0
  2  3  1  0
  3  4  1  0
  4  5  1  0
  5  6  2  0
  7  5  1  6
  7  8  1  0
  9  8  1  6
  9 10  1  0
 10 11  1  0
 12 11  1  1
 12 13  1  0
 12  7  1  0
 13  9  1  0
M  END
>  <Hit>  (333) 
Mpro-x0991_0

>  <Receptor>  (333) 
Mpro-x0305_0

>  <SCORE>  (333) 
-3.64621

>  <SCORE.norm>  (333) 
-0.28047800000000001

>  <SCORE.heavy>  (333) 
13

>  <OrigSmiles>  (333) 
C#CCCC(=O)[C@@H]1C[C@@H]2CC[C@H]1N2

>  <SuCOS_Score>  (333) 
0.54264631496302318

>  <Max_SuCOS_Score>  (333) 
0.54264631496302318

>  <Cum_SuCOS_Score>  (333) 
1.8311680444559917

>  <TransFSScore_50nM>  (333) 
0.0081110000000000002

>  <TransFSScore_1uM>  (333) 
0.41779899999999998

>  <TransFSScore_10nM>  (333) 
0.011180000000000001

>  <TransFSScore_200nM>  (333) 
0.13197

>  <TransFSScore>  (333) 
0.142265

>  <FeatureSteinScore>  (333) 
0.36195893407419294

$$$$
C#CCCC(=O)c1cc(Cl)cc(Br)c1
     RDKit          3D

 14 14  0  0  0  0  0  0  0  0999 V2000
   12.7193    6.4857   26.0034 C   0  0  0  0  0  0  0  0  0  0  0  0
   12.7523    6.1798   24.8377 C   0  0  0  0  0  0  0  0  0  0  0  0
   12.7926    5.8079   23.4188 C   0  0  0  0  0  0  0  0  0  0  0  0
   12.9274    4.2876   23.2673 C   0  0  0  0  0  0  0  0  0  0  0  0
   11.7876    3.5285   23.9073 C   0  0  0  0  0  0  0  0  0  0  0  0
   10.8885    4.1640   24.5255 O   0  0  0  0  0  0  0  0  0  0  0  0
   11.6851    2.0473   23.7988 C   0  0  0  0  0  0  0  0  0  0  0  0
   10.7298    1.3528   24.5655 C   0  0  0  0  0  0  0  0  0  0  0  0
   10.6252   -0.0400   24.4742 C   0  0  0  0  0  0  0  0  0  0  0  0
    9.4354   -0.8940   25.4400 Cl  0  0  0  0  0  0  0  0  0  0  0  0
   11.4649   -0.7536   23.6117 C   0  0  0  0  0  0  0  0  0  0  0  0
   12.4110   -0.0741   22.8375 C   0  0  0  0  0  0  0  0  0  0  0  0
   13.5435   -1.0306   21.6190 Br  0  0  0  0  0  0  0  0  0  0  0  0
   12.5238    1.3162   22.9336 C   0  0  0  0  0  0  0  0  0  0  0  0
  1  2  3  0
  2  3  1  0
  3  4  1  0
  4  5  1  0
  5  6  2  0
  5  7  1  0
  7  8  2  0
  8  9  1  0
  9 10  1  0
  9 11  2  0
 11 12  1  0
 12 13  1  0
 12 14  2  0
 14  7  1  0
M  END
>  <Hit>  (334) 
Mpro-x0946_0

>  <Receptor>  (334) 
Mpro-x1249_0

>  <SCORE>  (334) 
-8.9718400000000003

>  <SCORE.norm>  (334) 
-0.64084600000000003

>  <SCORE.heavy>  (334) 
14

>  <OrigSmiles>  (334) 
C#CCCC(=O)c1cc(Cl)cc(Br)c1

>  <SuCOS_Score>  (334) 
0.40488788511982088

>  <Max_SuCOS_Score>  (334) 
0.46479150435272032

>  <Cum_SuCOS_Score>  (334) 
4.2068736957724537

>  <TransFSScore_50nM>  (334) 
0.048721

>  <TransFSScore_1uM>  (334) 
0.036500999999999999

>  <TransFSScore_10nM>  (334) 
0.0049399999999999999

>  <TransFSScore_200nM>  (334) 
0.013018

>  <TransFSScore>  (334) 
0.025794999999999998

>  <FeatureSteinScore>  (334) 
0.37727038795476353

$$$$
C#CCCC(C)(F)C1C2CNC1C2
     RDKit          3D

 13 14  0  0  0  0  0  0  0  0999 V2000
    7.7107   -1.9884   21.4772 C   0  0  0  0  0  0  0  0  0  0  0  0
    8.3751   -2.4489   22.3717 C   0  0  0  0  0  0  0  0  0  0  0  0
    9.1848   -3.0092   23.4625 C   0  0  0  0  0  0  0  0  0  0  0  0
    8.4390   -4.1230   24.2225 C   0  0  0  0  0  0  0  0  0  0  0  0
    9.1194   -4.5362   25.5535 C   0  0  1  0  0  0  0  0  0  0  0  0
   10.4877   -5.1899   25.2875 C   0  0  0  0  0  0  0  0  0  0  0  0
    9.3468   -3.3812   26.2873 F   0  0  0  0  0  0  0  0  0  0  0  0
    8.3046   -5.4859   26.5017 C   0  0  2  0  0  0  0  0  0  0  0  0
    6.8302   -5.2141   26.8160 C   0  0  1  0  0  0  0  0  0  0  0  0
    6.5222   -6.5063   27.5948 C   0  0  0  0  0  0  0  0  0  0  0  0
    7.7087   -6.5664   28.4869 N   0  0  0  0  0  0  0  0  0  0  0  0
    8.3837   -5.3410   28.0265 C   0  0  2  0  0  0  0  0  0  0  0  0
    7.2242   -4.3485   28.0030 C   0  0  0  0  0  0  0  0  0  0  0  0
  1  2  3  0
  2  3  1  0
  3  4  1  0
  4  5  1  0
  5  6  1  6
  5  7  1  0
  8  5  1  6
  8  9  1  0
  9 10  1  1
 10 11  1  0
 11 12  1  0
 12 13  1  6
 12  8  1  0
 13  9  1  0
M  END
>  <Hit>  (335) 
Mpro-x0991_0

>  <Receptor>  (335) 
Mpro-x0305_0

>  <SCORE>  (335) 
-6.9614799999999999

>  <SCORE.norm>  (335) 
-0.53549800000000003

>  <SCORE.heavy>  (335) 
13

>  <OrigSmiles>  (335) 
C#CCCC(C)(F)C1C2CNC1C2

>  <SuCOS_Score>  (335) 
0.53476837557156687

>  <Max_SuCOS_Score>  (335) 
0.53476837557156687

>  <Cum_SuCOS_Score>  (335) 
2.1465508234222526

>  <TransFSScore_50nM>  (335) 
0.015239000000000001

>  <TransFSScore_1uM>  (335) 
0.238626

>  <TransFSScore_10nM>  (335) 
0.0077190000000000002

>  <TransFSScore_200nM>  (335) 
0.104132

>  <TransFSScore>  (335) 
0.091428999999999996

>  <FeatureSteinScore>  (335) 
0.48545825930809428

$$$$
C#CCCC(C)(O)C1C2CNC1C2
     RDKit          3D

 13 14  0  0  0  0  0  0  0  0999 V2000
    7.9606   -5.9575   27.5386 C   0  0  0  0  0  0  0  0  0  0  0  0
    8.7548   -5.8712   26.6358 C   0  0  0  0  0  0  0  0  0  0  0  0
    9.7226   -5.7665   25.5357 C   0  0  0  0  0  0  0  0  0  0  0  0
    9.7770   -4.3392   24.9542 C   0  0  0  0  0  0  0  0  0  0  0  0
    8.4808   -3.8711   24.2388 C   0  0  2  0  0  0  0  0  0  0  0  0
    8.6217   -2.3874   23.8169 C   0  0  0  0  0  0  0  0  0  0  0  0
    7.4092   -4.0212   25.1417 O   0  0  0  0  0  0  0  0  0  0  0  0
    8.3184   -4.7277   22.9264 C   0  0  2  0  0  0  0  0  0  0  0  0
    7.1894   -4.5472   21.8999 C   0  0  2  0  0  0  0  0  0  0  0  0
    5.9188   -4.8502   22.7046 C   0  0  0  0  0  0  0  0  0  0  0  0
    6.3786   -6.0050   23.5047 N   0  0  0  0  0  0  0  0  0  0  0  0
    7.7303   -6.1455   22.9410 C   0  0  1  0  0  0  0  0  0  0  0  0
    7.4705   -5.9803   21.4408 C   0  0  0  0  0  0  0  0  0  0  0  0
  1  2  3  0
  2  3  1  0
  3  4  1  0
  4  5  1  0
  5  6  1  6
  5  7  1  0
  8  5  1  1
  8  9  1  0
  9 10  1  1
 10 11  1  0
 11 12  1  0
 12 13  1  6
 12  8  1  0
 13  9  1  0
M  END
>  <Hit>  (336) 
Mpro-x0991_0

>  <Receptor>  (336) 
Mpro-x0874_0

>  <SCORE>  (336) 
-10.030900000000001

>  <SCORE.norm>  (336) 
-0.77160799999999996

>  <SCORE.heavy>  (336) 
13

>  <OrigSmiles>  (336) 
C#CCCC(C)(O)C1C2CNC1C2

>  <SuCOS_Score>  (336) 
0.50969380032949874

>  <Max_SuCOS_Score>  (336) 
0.50969380032949874

>  <Cum_SuCOS_Score>  (336) 
1.8469582799865665

>  <TransFSScore_50nM>  (336) 
0.0030850000000000001

>  <TransFSScore_1uM>  (336) 
0.047376000000000001

>  <TransFSScore_10nM>  (336) 
0.004045

>  <TransFSScore_200nM>  (336) 
0.079194000000000001

>  <TransFSScore>  (336) 
0.033424999999999996

>  <FeatureSteinScore>  (336) 
0.36906480625707666

$$$$
C#CCCC(Cc1c[nH]c2ccccc12)NC(=O)OC(C)(C)C
     RDKit          3D

 23 24  0  0  0  0  0  0  0  0999 V2000
   11.8441    6.7922   24.8438 C   0  0  0  0  0  0  0  0  0  0  0  0
   12.1810    5.9205   24.0822 C   0  0  0  0  0  0  0  0  0  0  0  0
   12.5905    4.8600   23.1548 C   0  0  0  0  0  0  0  0  0  0  0  0
   11.8619    3.5492   23.4867 C   0  0  0  0  0  0  0  0  0  0  0  0
   10.3858    3.5651   23.0369 C   0  0  1  0  0  0  0  0  0  0  0  0
    9.6635    2.2545   23.4294 C   0  0  0  0  0  0  0  0  0  0  0  0
   10.1284    1.0732   22.6107 C   0  0  0  0  0  0  0  0  0  0  0  0
    9.4518    0.4471   21.5643 C   0  0  0  0  0  0  0  0  0  0  0  0
   10.1218   -0.6279   21.1244 N   0  0  0  0  0  0  0  0  0  0  0  0
   11.2630   -0.6618   21.8217 C   0  0  0  0  0  0  0  0  0  0  0  0
   12.3306   -1.5385   21.6340 C   0  0  0  0  0  0  0  0  0  0  0  0
   13.4790   -1.3566   22.4210 C   0  0  0  0  0  0  0  0  0  0  0  0
   13.5386   -0.3062   23.3604 C   0  0  0  0  0  0  0  0  0  0  0  0
   12.4478    0.5686   23.5244 C   0  0  0  0  0  0  0  0  0  0  0  0
   11.3127    0.3605   22.7360 C   0  0  0  0  0  0  0  0  0  0  0  0
    9.7464    4.7467   23.6191 N   0  0  0  0  0  0  0  0  0  0  0  0
    8.8989    5.7042   22.9995 C   0  0  0  0  0  0  0  0  0  0  0  0
    9.1480    6.9201   23.0600 O   0  0  0  0  0  0  0  0  0  0  0  0
    7.5668    5.3116   22.7753 O   0  0  0  0  0  0  0  0  0  0  0  0
    6.4405    6.1692   22.5254 C   0  0  0  0  0  0  0  0  0  0  0  0
    6.7736    6.9964   21.2744 C   0  0  0  0  0  0  0  0  0  0  0  0
    6.1976    7.1325   23.7049 C   0  0  0  0  0  0  0  0  0  0  0  0
    5.1789    5.3309   22.2447 C   0  0  0  0  0  0  0  0  0  0  0  0
  1  2  3  0
  2  3  1  0
  3  4  1  0
  5  4  1  1
  5  6  1  0
  5 16  1  0
  6  7  1  0
  7  8  2  0
  8  9  1  0
  9 10  1  0
 10 11  2  0
 11 12  1  0
 12 13  2  0
 13 14  1  0
 14 15  2  0
 15  7  1  0
 15 10  1  0
 16 17  1  0
 17 18  2  0
 17 19  1  0
 19 20  1  0
 20 21  1  0
 20 22  1  0
 20 23  1  0
M  END
>  <Hit>  (337) 
Mpro-x0104_0

>  <Receptor>  (337) 
Mpro-x0387_0

>  <SCORE>  (337) 
-6.4869399999999997

>  <SCORE.norm>  (337) 
-0.28204099999999999

>  <SCORE.heavy>  (337) 
23

>  <OrigSmiles>  (337) 
C#CCCC(Cc1c[nH]c2ccccc12)NC(=O)OC(C)(C)C

>  <SuCOS_Score>  (337) 
0.45926702242854156

>  <Max_SuCOS_Score>  (337) 
0.5076313894469624

>  <Cum_SuCOS_Score>  (337) 
4.9243778668761955

>  <TransFSScore_50nM>  (337) 
0.0074130000000000003

>  <TransFSScore_1uM>  (337) 
0.02836

>  <TransFSScore_10nM>  (337) 
0.0027130000000000001

>  <TransFSScore_200nM>  (337) 
0.102565

>  <TransFSScore>  (337) 
0.035262750000000002

>  <FeatureSteinScore>  (337) 
0.28043175911550638

$$$$
C#CCCC(N)c1cc(Cl)cc(Br)c1
     RDKit          3D

 14 14  0  0  0  0  0  0  0  0999 V2000
    9.5998    6.3337   23.6295 C   0  0  0  0  0  0  0  0  0  0  0  0
   10.7074    6.4863   24.0803 C   0  0  0  0  0  0  0  0  0  0  0  0
   12.0554    6.6716   24.6290 C   0  0  0  0  0  0  0  0  0  0  0  0
   12.8193    5.3410   24.6332 C   0  0  0  0  0  0  0  0  0  0  0  0
   12.9939    4.7650   23.2098 C   0  0  1  0  0  0  0  0  0  0  0  0
   14.4186    4.6192   22.8832 N   0  0  0  0  0  0  0  0  0  0  0  0
   12.2702    3.4372   23.0457 C   0  0  0  0  0  0  0  0  0  0  0  0
   10.8656    3.3826   22.9764 C   0  0  0  0  0  0  0  0  0  0  0  0
   10.2159    2.1532   22.8173 C   0  0  0  0  0  0  0  0  0  0  0  0
    8.4649    2.0934   22.7335 Cl  0  0  0  0  0  0  0  0  0  0  0  0
   10.9602    0.9714   22.7184 C   0  0  0  0  0  0  0  0  0  0  0  0
   12.3574    1.0181   22.7778 C   0  0  0  0  0  0  0  0  0  0  0  0
   13.3964   -0.5856   22.6040 Br  0  0  0  0  0  0  0  0  0  0  0  0
   13.0078    2.2441   22.9460 C   0  0  0  0  0  0  0  0  0  0  0  0
  1  2  3  0
  2  3  1  0
  3  4  1  0
  4  5  1  0
  5  6  1  1
  5  7  1  0
  7  8  2  0
  8  9  1  0
  9 10  1  0
  9 11  2  0
 11 12  1  0
 12 13  1  0
 12 14  2  0
 14  7  1  0
M  END
>  <Hit>  (338) 
Mpro-x0946_0

>  <Receptor>  (338) 
Mpro-x0305_0

>  <SCORE>  (338) 
-14.0633

>  <SCORE.norm>  (338) 
-1.0045200000000001

>  <SCORE.heavy>  (338) 
14

>  <OrigSmiles>  (338) 
C#CCCC(N)c1cc(Cl)cc(Br)c1

>  <SuCOS_Score>  (338) 
0.56088690610865743

>  <Max_SuCOS_Score>  (338) 
0.56088690610865743

>  <Cum_SuCOS_Score>  (338) 
3.4465950549546349

>  <TransFSScore_50nM>  (338) 
0.025905999999999998

>  <TransFSScore_1uM>  (338) 
0.034292999999999997

>  <TransFSScore_10nM>  (338) 
0.0047000000000000002

>  <TransFSScore_200nM>  (338) 
0.078381000000000006

>  <TransFSScore>  (338) 
0.035820000000000005

>  <FeatureSteinScore>  (338) 
0.32833207218026489

$$$$
C#CCCC(N)c1ccc(Cl)cc1Br
     RDKit          3D

 14 14  0  0  0  0  0  0  0  0999 V2000
    9.0263   -4.7818   26.7122 C   0  0  0  0  0  0  0  0  0  0  0  0
    9.4369   -4.4246   25.6365 C   0  0  0  0  0  0  0  0  0  0  0  0
    9.9362   -3.9898   24.3270 C   0  0  0  0  0  0  0  0  0  0  0  0
   10.0569   -2.4616   24.2810 C   0  0  0  0  0  0  0  0  0  0  0  0
   10.7938   -1.9731   23.0123 C   0  0  1  0  0  0  0  0  0  0  0  0
    9.9978   -2.1692   21.7880 N   0  0  0  0  0  0  0  0  0  0  0  0
   11.2658   -0.5255   23.1671 C   0  0  0  0  0  0  0  0  0  0  0  0
   10.4027    0.3788   23.8202 C   0  0  0  0  0  0  0  0  0  0  0  0
   10.7537    1.7186   23.9899 C   0  0  0  0  0  0  0  0  0  0  0  0
   11.9782    2.1828   23.5116 C   0  0  0  0  0  0  0  0  0  0  0  0
   12.4225    3.8661   23.7271 Cl  0  0  0  0  0  0  0  0  0  0  0  0
   12.8494    1.3085   22.8569 C   0  0  0  0  0  0  0  0  0  0  0  0
   12.5053   -0.0388   22.6713 C   0  0  0  0  0  0  0  0  0  0  0  0
   13.7680   -1.1348   21.7161 Br  0  0  0  0  0  0  0  0  0  0  0  0
  1  2  3  0
  2  3  1  0
  3  4  1  0
  4  5  1  0
  5  6  1  6
  5  7  1  0
  7  8  2  0
  8  9  1  0
  9 10  2  0
 10 11  1  0
 10 12  1  0
 12 13  2  0
 13 14  1  0
 13  7  1  0
M  END
>  <Hit>  (339) 
Mpro-x0946_0

>  <Receptor>  (339) 
Mpro-x1249_0

>  <SCORE>  (339) 
-13.3255

>  <SCORE.norm>  (339) 
-0.95182

>  <SCORE.heavy>  (339) 
14

>  <OrigSmiles>  (339) 
C#CCCC(N)c1ccc(Cl)cc1Br

>  <SuCOS_Score>  (339) 
0.34248860222953248

>  <Max_SuCOS_Score>  (339) 
0.43892303892646112

>  <Cum_SuCOS_Score>  (339) 
5.36136156510186

>  <TransFSScore_50nM>  (339) 
0.0026129999999999999

>  <TransFSScore_1uM>  (339) 
0.024353

>  <TransFSScore_10nM>  (339) 
0.010597000000000001

>  <TransFSScore_200nM>  (339) 
0.13459299999999999

>  <TransFSScore>  (339) 
0.043038999999999994

>  <FeatureSteinScore>  (339) 
0.465168198737966

$$$$
C#CCCC(O)C12CCC(CC1)N2
     RDKit          3D

 13 14  0  0  0  0  0  0  0  0999 V2000
    9.9637   -2.2916   22.3479 C   0  0  0  0  0  0  0  0  0  0  0  0
   10.0523   -2.8568   23.4090 C   0  0  0  0  0  0  0  0  0  0  0  0
   10.1609   -3.5469   24.7014 C   0  0  0  0  0  0  0  0  0  0  0  0
    9.6517   -4.9916   24.6157 C   0  0  0  0  0  0  0  0  0  0  0  0
    9.7794   -5.7391   25.9636 C   0  0  2  0  0  0  0  0  0  0  0  0
    9.7150   -7.1233   25.7158 O   0  0  0  0  0  0  0  0  0  0  0  0
    8.6810   -5.3488   26.9986 C   0  0  2  0  0  0  0  0  0  0  0  0
    7.2891   -5.0284   26.3915 C   0  0  0  0  0  0  0  0  0  0  0  0
    6.3761   -5.2228   27.6107 C   0  0  0  0  0  0  0  0  0  0  0  0
    7.3955   -5.6018   28.7017 C   0  0  2  0  0  0  0  0  0  0  0  0
    8.1611   -4.3277   29.0982 C   0  0  0  0  0  0  0  0  0  0  0  0
    9.0759   -4.1334   27.8822 C   0  0  0  0  0  0  0  0  0  0  0  0
    8.3880   -6.3862   27.9813 N   0  0  0  0  0  0  0  0  0  0  0  0
  1  2  3  0
  2  3  1  0
  3  4  1  0
  4  5  1  0
  5  6  1  6
  7  5  1  0
  7  8  1  6
  8  9  1  0
 10  9  1  6
 10 11  1  0
 10 13  1  0
 11 12  1  0
 12  7  1  0
 13  7  1  0
M  END
>  <Hit>  (340) 
Mpro-x0991_0

>  <Receptor>  (340) 
Mpro-x0387_0

>  <SCORE>  (340) 
-10.1715

>  <SCORE.norm>  (340) 
-0.78242199999999995

>  <SCORE.heavy>  (340) 
13

>  <OrigSmiles>  (340) 
C#CCCC(O)C12CCC(CC1)N2

>  <SuCOS_Score>  (340) 
0.38928728120408351

>  <Max_SuCOS_Score>  (340) 
0.38928728120408351

>  <Cum_SuCOS_Score>  (340) 
2.0687751309486715

>  <TransFSScore_50nM>  (340) 
0.0060559999999999998

>  <TransFSScore_1uM>  (340) 
0.15462899999999999

>  <TransFSScore_10nM>  (340) 
0.0012899999999999999

>  <TransFSScore_200nM>  (340) 
0.088244000000000003

>  <TransFSScore>  (340) 
0.062554750000000006

>  <FeatureSteinScore>  (340) 
0.21979974091458071

$$$$
C#CCCC(O)C1CC2CCC1N2
     RDKit          3D

 13 14  0  0  0  0  0  0  0  0999 V2000
   10.7549   -4.4345   25.3809 C   0  0  0  0  0  0  0  0  0  0  0  0
    9.8205   -4.4481   24.6194 C   0  0  0  0  0  0  0  0  0  0  0  0
    8.6801   -4.4659   23.6889 C   0  0  0  0  0  0  0  0  0  0  0  0
    8.4889   -3.1046   23.0036 C   0  0  0  0  0  0  0  0  0  0  0  0
    9.7163   -2.6681   22.1718 C   0  0  1  0  0  0  0  0  0  0  0  0
    9.3077   -1.7433   21.1940 O   0  0  0  0  0  0  0  0  0  0  0  0
   10.7816   -1.9978   23.0754 C   0  0  1  0  0  0  0  0  0  0  0  0
   12.0532   -1.5686   22.3133 C   0  0  0  0  0  0  0  0  0  0  0  0
   12.1080   -0.0628   22.6275 C   0  0  2  0  0  0  0  0  0  0  0  0
   12.5210    0.1252   24.0948 C   0  0  0  0  0  0  0  0  0  0  0  0
   11.2269   -0.2602   24.8238 C   0  0  0  0  0  0  0  0  0  0  0  0
   10.3154   -0.6288   23.6437 C   0  0  1  0  0  0  0  0  0  0  0  0
   10.7158    0.3445   22.6423 N   0  0  0  0  0  0  0  0  0  0  0  0
  1  2  3  0
  2  3  1  0
  3  4  1  0
  4  5  1  0
  5  6  1  6
  7  5  1  0
  7  8  1  6
  9  8  1  1
  9 10  1  0
 10 11  1  0
 12 11  1  1
 12 13  1  0
 12  7  1  0
 13  9  1  0
M  END
>  <Hit>  (341) 
Mpro-x0991_0

>  <Receptor>  (341) 
Mpro-x0387_0

>  <SCORE>  (341) 
-10.145099999999999

>  <SCORE.norm>  (341) 
-0.780389

>  <SCORE.heavy>  (341) 
13

>  <OrigSmiles>  (341) 
C#CCCC(O)C1CC2CCC1N2

>  <SuCOS_Score>  (341) 
0.39350703240272183

>  <Max_SuCOS_Score>  (341) 
0.39350703240272183

>  <Cum_SuCOS_Score>  (341) 
4.2868969306041578

>  <TransFSScore_50nM>  (341) 
0.0078139999999999998

>  <TransFSScore_1uM>  (341) 
0.133382

>  <TransFSScore_10nM>  (341) 
0.0053759999999999997

>  <TransFSScore_200nM>  (341) 
0.31427500000000003

>  <TransFSScore>  (341) 
0.11521175

>  <FeatureSteinScore>  (341) 
0.53166611211022563

$$$$
C#CCCC(O)CC12CCC(CC1)N2
     RDKit          3D

 14 15  0  0  0  0  0  0  0  0999 V2000
   10.5789   -5.4556   25.4685 C   0  0  0  0  0  0  0  0  0  0  0  0
    9.4224   -5.1304   25.3695 C   0  0  0  0  0  0  0  0  0  0  0  0
    8.0129   -4.7345   25.2470 C   0  0  0  0  0  0  0  0  0  0  0  0
    7.6381   -4.4138   23.7944 C   0  0  0  0  0  0  0  0  0  0  0  0
    8.2539   -3.0896   23.2988 C   0  0  1  0  0  0  0  0  0  0  0  0
    9.6311   -3.2705   23.0791 O   0  0  0  0  0  0  0  0  0  0  0  0
    7.5840   -2.6558   21.9749 C   0  0  0  0  0  0  0  0  0  0  0  0
    7.9696   -1.2456   21.4576 C   0  0  2  0  0  0  0  0  0  0  0  0
    7.6550   -0.1545   22.5063 C   0  0  0  0  0  0  0  0  0  0  0  0
    8.6210    0.9601   22.0907 C   0  0  0  0  0  0  0  0  0  0  0  0
    9.3016    0.3245   20.8738 C   0  0  2  0  0  0  0  0  0  0  0  0
    8.3014    0.3244   19.7012 C   0  0  0  0  0  0  0  0  0  0  0  0
    7.3495   -0.8053   20.1095 C   0  0  0  0  0  0  0  0  0  0  0  0
    9.4018   -1.0729   21.2625 N   0  0  0  0  0  0  0  0  0  0  0  0
  1  2  3  0
  2  3  1  0
  3  4  1  0
  4  5  1  0
  5  6  1  6
  5  7  1  0
  8  7  1  1
  8  9  1  0
  9 10  1  0
 11 10  1  1
 11 12  1  0
 11 14  1  0
 12 13  1  0
 13  8  1  0
 14  8  1  0
M  END
>  <Hit>  (342) 
Mpro-x0991_0

>  <Receptor>  (342) 
Mpro-x1249_0

>  <SCORE>  (342) 
-10.1591

>  <SCORE.norm>  (342) 
-0.72564799999999996

>  <SCORE.heavy>  (342) 
14

>  <OrigSmiles>  (342) 
C#CCCC(O)CC12CCC(CC1)N2

>  <SuCOS_Score>  (342) 
0.59569516494567998

>  <Max_SuCOS_Score>  (342) 
0.59569516494567998

>  <Cum_SuCOS_Score>  (342) 
3.1560730553132048

>  <TransFSScore_50nM>  (342) 
0.033547

>  <TransFSScore_1uM>  (342) 
0.14999199999999999

>  <TransFSScore_10nM>  (342) 
0.014050999999999999

>  <TransFSScore_200nM>  (342) 
0.19590299999999999

>  <TransFSScore>  (342) 
0.098373249999999995

>  <FeatureSteinScore>  (342) 
0.44618424099536558

$$$$
C#CCCC(O)[C@@H]1C[C@@H]2CC[C@H]1N2
     RDKit          3D

 13 14  0  0  0  0  0  0  0  0999 V2000
   10.0807    0.1962   24.3586 C   0  0  0  0  0  0  0  0  0  0  0  0
   10.3439   -0.8793   24.8356 C   0  0  0  0  0  0  0  0  0  0  0  0
   10.6645   -2.1901   25.4164 C   0  0  0  0  0  0  0  0  0  0  0  0
    9.7439   -3.2917   24.8748 C   0  0  0  0  0  0  0  0  0  0  0  0
   10.2274   -4.7110   25.2793 C   0  0  1  0  0  0  0  0  0  0  0  0
   11.6314   -4.7541   25.3288 O   0  0  0  0  0  0  0  0  0  0  0  0
    9.6275   -5.3511   26.5700 C   0  0  2  0  0  0  0  0  0  0  0  0
    8.1040   -5.5850   26.5958 C   0  0  0  0  0  0  0  0  0  0  0  0
    7.7594   -5.1234   28.0288 C   0  0  2  0  0  0  0  0  0  0  0  0
    7.7692   -3.5843   28.0548 C   0  0  0  0  0  0  0  0  0  0  0  0
    9.2759   -3.2933   28.0582 C   0  0  0  0  0  0  0  0  0  0  0  0
    9.8665   -4.7126   27.9660 C   0  0  1  0  0  0  0  0  0  0  0  0
    8.9458   -5.4743   28.7997 N   0  0  0  0  0  0  0  0  0  0  0  0
  1  2  3  0
  2  3  1  0
  3  4  1  0
  4  5  1  0
  5  6  1  1
  7  5  1  0
  7  8  1  6
  9  8  1  6
  9 10  1  0
 10 11  1  0
 12 11  1  6
 12 13  1  0
 12  7  1  0
 13  9  1  0
M  END
>  <Hit>  (343) 
Mpro-x0991_0

>  <Receptor>  (343) 
Mpro-x0387_0

>  <SCORE>  (343) 
-7.7145700000000001

>  <SCORE.norm>  (343) 
-0.59342799999999996

>  <SCORE.heavy>  (343) 
13

>  <OrigSmiles>  (343) 
C#CCCC(O)[C@@H]1C[C@@H]2CC[C@H]1N2

>  <SuCOS_Score>  (343) 
0.28679365879705665

>  <Max_SuCOS_Score>  (343) 
0.28989889236848781

>  <Cum_SuCOS_Score>  (343) 
2.3063860638222025

>  <TransFSScore_50nM>  (343) 
0.010302

>  <TransFSScore_1uM>  (343) 
0.17311299999999999

>  <TransFSScore_10nM>  (343) 
0.0014369999999999999

>  <TransFSScore_200nM>  (343) 
0.033965000000000002

>  <TransFSScore>  (343) 
0.054704249999999996

>  <FeatureSteinScore>  (343) 
0.15012852404101149

$$$$
C#CCCC(O)c1c(Cl)cccc1Br
     RDKit          3D

 14 14  0  0  0  0  0  0  0  0999 V2000
    9.8253    1.4311   21.5501 C   0  0  0  0  0  0  0  0  0  0  0  0
    9.6163    0.2631   21.3371 C   0  0  0  0  0  0  0  0  0  0  0  0
    9.3617   -1.1583   21.0785 C   0  0  0  0  0  0  0  0  0  0  0  0
    9.3740   -1.9519   22.3909 C   0  0  0  0  0  0  0  0  0  0  0  0
   10.8030   -2.1488   22.9425 C   0  0  2  0  0  0  0  0  0  0  0  0
   10.7741   -2.9372   24.1049 O   0  0  0  0  0  0  0  0  0  0  0  0
   11.4841   -0.8139   23.2407 C   0  0  0  0  0  0  0  0  0  0  0  0
   10.9520    0.0568   24.2299 C   0  0  0  0  0  0  0  0  0  0  0  0
    9.5024   -0.3217   25.1603 Cl  0  0  0  0  0  0  0  0  0  0  0  0
   11.5823    1.2716   24.5179 C   0  0  0  0  0  0  0  0  0  0  0  0
   12.7479    1.6353   23.8498 C   0  0  0  0  0  0  0  0  0  0  0  0
   13.2927    0.7922   22.8830 C   0  0  0  0  0  0  0  0  0  0  0  0
   12.6739   -0.4240   22.5675 C   0  0  0  0  0  0  0  0  0  0  0  0
   13.4948   -1.4919   21.1861 Br  0  0  0  0  0  0  0  0  0  0  0  0
  1  2  3  0
  2  3  1  0
  3  4  1  0
  4  5  1  0
  5  6  1  1
  5  7  1  0
  7  8  2  0
  8  9  1  0
  8 10  1  0
 10 11  2  0
 11 12  1  0
 12 13  2  0
 13 14  1  0
 13  7  1  0
M  END
>  <Hit>  (344) 
Mpro-x0946_0

>  <Receptor>  (344) 
Mpro-x1249_0

>  <SCORE>  (344) 
-10.0594

>  <SCORE.norm>  (344) 
-0.71852899999999997

>  <SCORE.heavy>  (344) 
14

>  <OrigSmiles>  (344) 
C#CCCC(O)c1c(Cl)cccc1Br

>  <SuCOS_Score>  (344) 
0.2240898569828095

>  <Max_SuCOS_Score>  (344) 
0.49369966274612337

>  <Cum_SuCOS_Score>  (344) 
5.4969681193766471

>  <TransFSScore_50nM>  (344) 
0.0089770000000000006

>  <TransFSScore_1uM>  (344) 
0.038108999999999997

>  <TransFSScore_10nM>  (344) 
0.00062200000000000005

>  <TransFSScore_200nM>  (344) 
0.032487000000000002

>  <TransFSScore>  (344) 
0.020048749999999997

>  <FeatureSteinScore>  (344) 
0.49747201536063679

$$$$
C#CCCC(O)c1cc(Cl)cc(Br)c1
     RDKit          3D

 14 14  0  0  0  0  0  0  0  0999 V2000
    8.2806    6.6300   22.2363 C   0  0  0  0  0  0  0  0  0  0  0  0
    9.1247    6.0767   22.8953 C   0  0  0  0  0  0  0  0  0  0  0  0
   10.1537    5.4053   23.6998 C   0  0  0  0  0  0  0  0  0  0  0  0
   11.4628    5.2268   22.9142 C   0  0  0  0  0  0  0  0  0  0  0  0
   12.5340    4.4092   23.6636 C   0  0  2  0  0  0  0  0  0  0  0  0
   13.7630    4.5558   23.0002 O   0  0  0  0  0  0  0  0  0  0  0  0
   12.1602    2.9424   23.7378 C   0  0  0  0  0  0  0  0  0  0  0  0
   11.1118    2.5143   24.5706 C   0  0  0  0  0  0  0  0  0  0  0  0
   10.7933    1.1540   24.6563 C   0  0  0  0  0  0  0  0  0  0  0  0
    9.4864    0.6252   25.6999 Cl  0  0  0  0  0  0  0  0  0  0  0  0
   11.5153    0.2140   23.9102 C   0  0  0  0  0  0  0  0  0  0  0  0
   12.5581    0.6345   23.0763 C   0  0  0  0  0  0  0  0  0  0  0  0
   13.5359   -0.6337   22.0198 Br  0  0  0  0  0  0  0  0  0  0  0  0
   12.8833    1.9919   22.9969 C   0  0  0  0  0  0  0  0  0  0  0  0
  1  2  3  0
  2  3  1  0
  3  4  1  0
  4  5  1  0
  5  6  1  6
  5  7  1  0
  7  8  2  0
  8  9  1  0
  9 10  1  0
  9 11  2  0
 11 12  1  0
 12 13  1  0
 12 14  2  0
 14  7  1  0
M  END
>  <Hit>  (345) 
Mpro-x0946_0

>  <Receptor>  (345) 
Mpro-x1249_0

>  <SCORE>  (345) 
-10.916399999999999

>  <SCORE.norm>  (345) 
-0.77974500000000002

>  <SCORE.heavy>  (345) 
14

>  <OrigSmiles>  (345) 
C#CCCC(O)c1cc(Cl)cc(Br)c1

>  <SuCOS_Score>  (345) 
0.57494694740723251

>  <Max_SuCOS_Score>  (345) 
0.57494694740723251

>  <Cum_SuCOS_Score>  (345) 
3.8993821871409846

>  <TransFSScore_50nM>  (345) 
0.0013190000000000001

>  <TransFSScore_1uM>  (345) 
0.048542000000000002

>  <TransFSScore_10nM>  (345) 
0.00064499999999999996

>  <TransFSScore_200nM>  (345) 
0.0045760000000000002

>  <TransFSScore>  (345) 
0.013770500000000001

>  <FeatureSteinScore>  (345) 
0.37234997695184369

$$$$
C#CCCCC(=O)C12CCC(CC1)N2
     RDKit          3D

 14 15  0  0  0  0  0  0  0  0999 V2000
   10.5144   -5.6138   26.3252 C   0  0  0  0  0  0  0  0  0  0  0  0
    9.5651   -5.4811   25.5941 C   0  0  0  0  0  0  0  0  0  0  0  0
    8.4056   -5.3183   24.7016 C   0  0  0  0  0  0  0  0  0  0  0  0
    8.7134   -4.3419   23.5602 C   0  0  0  0  0  0  0  0  0  0  0  0
    8.7675   -2.8849   24.0418 C   0  0  0  0  0  0  0  0  0  0  0  0
    9.2182   -1.9717   22.9317 C   0  0  0  0  0  0  0  0  0  0  0  0
    8.4382   -1.6998   22.0304 O   0  0  0  0  0  0  0  0  0  0  0  0
   10.6099   -1.3721   22.9367 C   0  0  1  0  0  0  0  0  0  0  0  0
   10.8521   -0.3789   24.0942 C   0  0  0  0  0  0  0  0  0  0  0  0
   12.0355    0.4333   23.5484 C   0  0  0  0  0  0  0  0  0  0  0  0
   12.2589   -0.2343   22.1776 C   0  0  1  0  0  0  0  0  0  0  0  0
   12.9201   -1.6062   22.4134 C   0  0  0  0  0  0  0  0  0  0  0  0
   11.7392   -2.4255   22.9530 C   0  0  0  0  0  0  0  0  0  0  0  0
   10.9126   -0.5801   21.7502 N   0  0  0  0  0  0  0  0  0  0  0  0
  1  2  3  0
  2  3  1  0
  3  4  1  0
  4  5  1  0
  5  6  1  0
  6  7  2  0
  8  6  1  6
  8  9  1  0
  9 10  1  0
 11 10  1  1
 11 12  1  0
 11 14  1  0
 12 13  1  0
 13  8  1  0
 14  8  1  0
M  END
>  <Hit>  (346) 
Mpro-x0991_0

>  <Receptor>  (346) 
Mpro-x0305_0

>  <SCORE>  (346) 
-6.60581

>  <SCORE.norm>  (346) 
-0.47184399999999999

>  <SCORE.heavy>  (346) 
14

>  <OrigSmiles>  (346) 
C#CCCCC(=O)C12CCC(CC1)N2

>  <SuCOS_Score>  (346) 
0.51929921476125851

>  <Max_SuCOS_Score>  (346) 
0.51929921476125851

>  <Cum_SuCOS_Score>  (346) 
4.4334914957857574

>  <TransFSScore_50nM>  (346) 
0.107054

>  <TransFSScore_1uM>  (346) 
0.49625799999999998

>  <TransFSScore_10nM>  (346) 
0.264457

>  <TransFSScore_200nM>  (346) 
0.39992800000000001

>  <TransFSScore>  (346) 
0.31692425000000002

>  <FeatureSteinScore>  (346) 
0.41000425364351034

$$$$
C#CCCCC(=O)C1CC2CCC1N2
     RDKit          3D

 14 15  0  0  0  0  0  0  0  0999 V2000
   10.1123   -4.7111   25.0539 C   0  0  0  0  0  0  0  0  0  0  0  0
    9.2723   -4.5168   24.2114 C   0  0  0  0  0  0  0  0  0  0  0  0
    8.2437   -4.2795   23.1848 C   0  0  0  0  0  0  0  0  0  0  0  0
    8.1681   -2.7955   22.8083 C   0  0  0  0  0  0  0  0  0  0  0  0
    7.0604   -2.5140   21.7827 C   0  0  0  0  0  0  0  0  0  0  0  0
    6.7215   -1.0461   21.7624 C   0  0  0  0  0  0  0  0  0  0  0  0
    5.8519   -0.6370   22.5183 O   0  0  0  0  0  0  0  0  0  0  0  0
    7.3257   -0.0979   20.7410 C   0  0  2  0  0  0  0  0  0  0  0  0
    6.5755    1.2374   20.5290 C   0  0  0  0  0  0  0  0  0  0  0  0
    6.4155    1.2621   18.9946 C   0  0  2  0  0  0  0  0  0  0  0  0
    5.2760    0.2987   18.6213 C   0  0  0  0  0  0  0  0  0  0  0  0
    5.9534   -1.0605   18.8300 C   0  0  0  0  0  0  0  0  0  0  0  0
    7.3690   -0.6352   19.2874 C   0  0  1  0  0  0  0  0  0  0  0  0
    7.6038    0.5739   18.5135 N   0  0  0  0  0  0  0  0  0  0  0  0
  1  2  3  0
  2  3  1  0
  3  4  1  0
  4  5  1  0
  5  6  1  0
  6  7  2  0
  8  6  1  1
  8  9  1  0
 10  9  1  1
 10 11  1  0
 11 12  1  0
 13 12  1  6
 13 14  1  0
 13  8  1  0
 14 10  1  0
M  END
>  <Hit>  (347) 
Mpro-x0991_0

>  <Receptor>  (347) 
Mpro-x0305_0

>  <SCORE>  (347) 
-10.339499999999999

>  <SCORE.norm>  (347) 
-0.73853800000000003

>  <SCORE.heavy>  (347) 
14

>  <OrigSmiles>  (347) 
C#CCCCC(=O)C1CC2CCC1N2

>  <SuCOS_Score>  (347) 
0.40024383003859504

>  <Max_SuCOS_Score>  (347) 
0.40024383003859504

>  <Cum_SuCOS_Score>  (347) 
2.975607540846001

>  <TransFSScore_50nM>  (347) 
0.05611

>  <TransFSScore_1uM>  (347) 
0.31734899999999999

>  <TransFSScore_10nM>  (347) 
0.0066940000000000003

>  <TransFSScore_200nM>  (347) 
0.45541599999999999

>  <TransFSScore>  (347) 
0.20889225

>  <FeatureSteinScore>  (347) 
0.42095579772577707

$$$$
C#CCCCC(=O)CC12CCC(CC1)N2
     RDKit          3D

 15 16  0  0  0  0  0  0  0  0999 V2000
   12.8349   -1.5475   21.6387 C   0  0  0  0  0  0  0  0  0  0  0  0
   11.8685   -1.5335   22.3592 C   0  0  0  0  0  0  0  0  0  0  0  0
   10.6930   -1.5151   23.2364 C   0  0  0  0  0  0  0  0  0  0  0  0
   10.2320   -2.9459   23.5399 C   0  0  0  0  0  0  0  0  0  0  0  0
    8.9335   -2.9805   24.3561 C   0  0  0  0  0  0  0  0  0  0  0  0
    8.4004   -4.3790   24.5313 C   0  0  0  0  0  0  0  0  0  0  0  0
    7.6324   -4.8450   23.7038 O   0  0  0  0  0  0  0  0  0  0  0  0
    8.7551   -5.1579   25.7746 C   0  0  0  0  0  0  0  0  0  0  0  0
    7.5620   -5.4556   26.7167 C   0  0  2  0  0  0  0  0  0  0  0  0
    6.4906   -6.3377   26.0291 C   0  0  0  0  0  0  0  0  0  0  0  0
    5.7759   -6.9529   27.2383 C   0  0  0  0  0  0  0  0  0  0  0  0
    6.5500   -6.3129   28.4031 C   0  0  2  0  0  0  0  0  0  0  0  0
    6.1184   -4.8363   28.5073 C   0  0  0  0  0  0  0  0  0  0  0  0
    6.8447   -4.2173   27.3038 C   0  0  0  0  0  0  0  0  0  0  0  0
    7.9135   -6.2326   27.8998 N   0  0  0  0  0  0  0  0  0  0  0  0
  1  2  3  0
  2  3  1  0
  3  4  1  0
  4  5  1  0
  5  6  1  0
  6  7  2  0
  6  8  1  0
  9  8  1  6
  9 10  1  0
 10 11  1  0
 12 11  1  6
 12 13  1  0
 12 15  1  0
 13 14  1  0
 14  9  1  0
 15  9  1  0
M  END
>  <Hit>  (348) 
Mpro-x0991_0

>  <Receptor>  (348) 
Mpro-x1249_0

>  <SCORE>  (348) 
-6.4813599999999996

>  <SCORE.norm>  (348) 
-0.43208999999999997

>  <SCORE.heavy>  (348) 
15

>  <OrigSmiles>  (348) 
C#CCCCC(=O)CC12CCC(CC1)N2

>  <SuCOS_Score>  (348) 
0.38668954859367172

>  <Max_SuCOS_Score>  (348) 
0.40231892718983753

>  <Cum_SuCOS_Score>  (348) 
3.4656487534166067

>  <TransFSScore_50nM>  (348) 
0.031199999999999999

>  <TransFSScore_1uM>  (348) 
0.23785600000000001

>  <TransFSScore_10nM>  (348) 
0.012709

>  <TransFSScore_200nM>  (348) 
0.12998899999999999

>  <TransFSScore>  (348) 
0.10293850000000002

>  <FeatureSteinScore>  (348) 
0.44268376193597098

$$$$
C#CCCCC(=O)[C@@H]1C[C@@H]2CC[C@H]1N2
     RDKit          3D

 14 15  0  0  0  0  0  0  0  0999 V2000
   10.1078   -4.6814   25.0002 C   0  0  0  0  0  0  0  0  0  0  0  0
    9.2578   -4.4381   24.1807 C   0  0  0  0  0  0  0  0  0  0  0  0
    8.2221   -4.1402   23.1773 C   0  0  0  0  0  0  0  0  0  0  0  0
    8.3910   -2.7266   22.6089 C   0  0  0  0  0  0  0  0  0  0  0  0
    7.1358   -2.2476   21.8654 C   0  0  0  0  0  0  0  0  0  0  0  0
    7.3878   -0.9145   21.2101 C   0  0  0  0  0  0  0  0  0  0  0  0
    7.4790    0.0771   21.9196 O   0  0  0  0  0  0  0  0  0  0  0  0
    7.3915   -0.7514   19.6999 C   0  0  2  0  0  0  0  0  0  0  0  0
    7.3557    0.7024   19.1752 C   0  0  0  0  0  0  0  0  0  0  0  0
    6.1809    0.6423   18.1767 C   0  0  2  0  0  0  0  0  0  0  0  0
    4.8717    0.6589   18.9837 C   0  0  0  0  0  0  0  0  0  0  0  0
    4.8537   -0.7641   19.5535 C   0  0  0  0  0  0  0  0  0  0  0  0
    6.1615   -1.3492   18.9693 C   0  0  1  0  0  0  0  0  0  0  0  0
    6.2367   -0.7174   17.6613 N   0  0  0  0  0  0  0  0  0  0  0  0
  1  2  3  0
  2  3  1  0
  3  4  1  0
  4  5  1  0
  5  6  1  0
  6  7  2  0
  8  6  1  1
  8  9  1  0
 10  9  1  1
 10 11  1  0
 11 12  1  0
 13 12  1  1
 13 14  1  0
 13  8  1  0
 14 10  1  0
M  END
>  <Hit>  (349) 
Mpro-x0991_0

>  <Receptor>  (349) 
Mpro-x0305_0

>  <SCORE>  (349) 
-10.1

>  <SCORE.norm>  (349) 
-0.72142700000000004

>  <SCORE.heavy>  (349) 
14

>  <OrigSmiles>  (349) 
C#CCCCC(=O)[C@@H]1C[C@@H]2CC[C@H]1N2

>  <SuCOS_Score>  (349) 
0.38701662454500135

>  <Max_SuCOS_Score>  (349) 
0.38701662454500135

>  <Cum_SuCOS_Score>  (349) 
3.0811789397837974

>  <TransFSScore_50nM>  (349) 
0.048584000000000002

>  <TransFSScore_1uM>  (349) 
0.31806099999999998

>  <TransFSScore_10nM>  (349) 
0.018745000000000001

>  <TransFSScore_200nM>  (349) 
0.44508399999999998

>  <TransFSScore>  (349) 
0.20761849999999998

>  <FeatureSteinScore>  (349) 
0.48397270332438824

$$$$
C#CCCCC(=O)c1ccc(Cl)cc1Br
     RDKit          3D

 15 15  0  0  0  0  0  0  0  0999 V2000
    9.3071    6.2498   22.7144 C   0  0  0  0  0  0  0  0  0  0  0  0
   10.3551    5.7136   22.9742 C   0  0  0  0  0  0  0  0  0  0  0  0
   11.6331    5.0618   23.2900 C   0  0  0  0  0  0  0  0  0  0  0  0
   11.5812    3.5563   23.0036 C   0  0  0  0  0  0  0  0  0  0  0  0
   12.8970    2.8525   23.3622 C   0  0  0  0  0  0  0  0  0  0  0  0
   12.7959    1.3814   23.0798 C   0  0  0  0  0  0  0  0  0  0  0  0
   13.6297    0.8386   22.3063 O   0  0  0  0  0  0  0  0  0  0  0  0
   11.8095    0.5424   23.7823 C   0  0  0  0  0  0  0  0  0  0  0  0
   11.1643    1.0679   24.9107 C   0  0  0  0  0  0  0  0  0  0  0  0
   10.2020    0.3186   25.5905 C   0  0  0  0  0  0  0  0  0  0  0  0
    9.8896   -0.9735   25.1556 C   0  0  0  0  0  0  0  0  0  0  0  0
    8.6876   -1.9198   26.0136 Cl  0  0  0  0  0  0  0  0  0  0  0  0
   10.5353   -1.5126   24.0349 C   0  0  0  0  0  0  0  0  0  0  0  0
   11.4910   -0.7569   23.3394 C   0  0  0  0  0  0  0  0  0  0  0  0
   12.3530   -1.5176   21.7943 Br  0  0  0  0  0  0  0  0  0  0  0  0
  1  2  3  0
  2  3  1  0
  3  4  1  0
  4  5  1  0
  5  6  1  0
  6  7  2  0
  6  8  1  0
  8  9  2  0
  9 10  1  0
 10 11  2  0
 11 12  1  0
 11 13  1  0
 13 14  2  0
 14 15  1  0
 14  8  1  0
M  END
>  <Hit>  (350) 
Mpro-x0946_0

>  <Receptor>  (350) 
Mpro-x0874_0

>  <SCORE>  (350) 
-10.6584

>  <SCORE.norm>  (350) 
-0.71055999999999997

>  <SCORE.heavy>  (350) 
15

>  <OrigSmiles>  (350) 
C#CCCCC(=O)c1ccc(Cl)cc1Br

>  <SuCOS_Score>  (350) 
0.43643705802314325

>  <Max_SuCOS_Score>  (350) 
0.45574641611649025

>  <Cum_SuCOS_Score>  (350) 
4.7600135474194891

>  <TransFSScore_50nM>  (350) 
0.015409000000000001

>  <TransFSScore_1uM>  (350) 
0.041052999999999999

>  <TransFSScore_10nM>  (350) 
0.0034740000000000001

>  <TransFSScore_200nM>  (350) 
0.034112000000000003

>  <TransFSScore>  (350) 
0.023511999999999998

>  <FeatureSteinScore>  (350) 
0.4098803900288564

$$$$
C#CCCCC(N)c1ccc(Cl)cc1Br
     RDKit          3D

 15 15  0  0  0  0  0  0  0  0999 V2000
    9.7477   -6.9154   25.8525 C   0  0  0  0  0  0  0  0  0  0  0  0
    9.8617   -5.7963   25.4186 C   0  0  0  0  0  0  0  0  0  0  0  0
   10.0012   -4.4344   24.8908 C   0  0  0  0  0  0  0  0  0  0  0  0
    8.7562   -4.0430   24.0879 C   0  0  0  0  0  0  0  0  0  0  0  0
    8.6735   -2.5332   23.7966 C   0  0  0  0  0  0  0  0  0  0  0  0
    9.7392   -2.0239   22.7814 C   0  0  1  0  0  0  0  0  0  0  0  0
    9.3884   -2.4054   21.4053 N   0  0  0  0  0  0  0  0  0  0  0  0
    9.9039   -0.5078   22.8661 C   0  0  0  0  0  0  0  0  0  0  0  0
    8.7512    0.3039   22.9024 C   0  0  0  0  0  0  0  0  0  0  0  0
    8.8533    1.6949   22.9578 C   0  0  0  0  0  0  0  0  0  0  0  0
   10.1103    2.3002   22.9752 C   0  0  0  0  0  0  0  0  0  0  0  0
   10.2403    4.0482   23.0467 Cl  0  0  0  0  0  0  0  0  0  0  0  0
   11.2657    1.5149   22.9308 C   0  0  0  0  0  0  0  0  0  0  0  0
   11.1757    0.1174   22.8677 C   0  0  0  0  0  0  0  0  0  0  0  0
   12.8240   -0.8760   22.7618 Br  0  0  0  0  0  0  0  0  0  0  0  0
  1  2  3  0
  2  3  1  0
  3  4  1  0
  4  5  1  0
  5  6  1  0
  6  7  1  6
  6  8  1  0
  8  9  2  0
  9 10  1  0
 10 11  2  0
 11 12  1  0
 11 13  1  0
 13 14  2  0
 14 15  1  0
 14  8  1  0
M  END
>  <Hit>  (351) 
Mpro-x0946_0

>  <Receptor>  (351) 
Mpro-x0387_0

>  <SCORE>  (351) 
-10.0509

>  <SCORE.norm>  (351) 
-0.67005800000000004

>  <SCORE.heavy>  (351) 
15

>  <OrigSmiles>  (351) 
C#CCCCC(N)c1ccc(Cl)cc1Br

>  <SuCOS_Score>  (351) 
0.22945606882421615

>  <Max_SuCOS_Score>  (351) 
0.41234521486712189

>  <Cum_SuCOS_Score>  (351) 
4.8240363536863704

>  <TransFSScore_50nM>  (351) 
0.0020219999999999999

>  <TransFSScore_1uM>  (351) 
0.025281999999999999

>  <TransFSScore_10nM>  (351) 
0.0031809999999999998

>  <TransFSScore_200nM>  (351) 
0.36176000000000003

>  <TransFSScore>  (351) 
0.098061250000000003

>  <FeatureSteinScore>  (351) 
0.4546076095011094

$$$$
C#CCCCC(O)C12CCC(CC1)N2
     RDKit          3D

 14 15  0  0  0  0  0  0  0  0999 V2000
    7.8281   -5.8218   27.3543 C   0  0  0  0  0  0  0  0  0  0  0  0
    8.8108   -5.4733   26.7492 C   0  0  0  0  0  0  0  0  0  0  0  0
   10.0068   -5.0475   26.0106 C   0  0  0  0  0  0  0  0  0  0  0  0
    9.7178   -3.8515   25.0914 C   0  0  0  0  0  0  0  0  0  0  0  0
    8.7485   -4.1193   23.9260 C   0  0  0  0  0  0  0  0  0  0  0  0
    8.6225   -3.0088   22.8568 C   0  0  2  0  0  0  0  0  0  0  0  0
    8.2394   -3.5636   21.6173 O   0  0  0  0  0  0  0  0  0  0  0  0
    9.7707   -1.9406   22.7506 C   0  0  1  0  0  0  0  0  0  0  0  0
    9.6250   -0.8508   23.8420 C   0  0  0  0  0  0  0  0  0  0  0  0
   10.4160    0.3104   23.2317 C   0  0  0  0  0  0  0  0  0  0  0  0
   10.8926   -0.3141   21.9173 C   0  0  1  0  0  0  0  0  0  0  0  0
   12.0130   -1.3235   22.2340 C   0  0  0  0  0  0  0  0  0  0  0  0
   11.2177   -2.4883   22.8330 C   0  0  0  0  0  0  0  0  0  0  0  0
    9.7619   -1.1416   21.5314 N   0  0  0  0  0  0  0  0  0  0  0  0
  1  2  3  0
  2  3  1  0
  3  4  1  0
  4  5  1  0
  5  6  1  0
  6  7  1  6
  8  6  1  0
  8  9  1  1
  9 10  1  0
 11 10  1  1
 11 12  1  0
 11 14  1  0
 12 13  1  0
 13  8  1  0
 14  8  1  0
M  END
>  <Hit>  (352) 
Mpro-x0991_0

>  <Receptor>  (352) 
Mpro-x1249_0

>  <SCORE>  (352) 
-10.0594

>  <SCORE.norm>  (352) 
-0.71853100000000003

>  <SCORE.heavy>  (352) 
14

>  <OrigSmiles>  (352) 
C#CCCCC(O)C12CCC(CC1)N2

>  <SuCOS_Score>  (352) 
0.45742465354513484

>  <Max_SuCOS_Score>  (352) 
0.45742465354513484

>  <Cum_SuCOS_Score>  (352) 
3.9117845284134107

>  <TransFSScore_50nM>  (352) 
0.0023280000000000002

>  <TransFSScore_1uM>  (352) 
0.083143999999999996

>  <TransFSScore_10nM>  (352) 
0.040009999999999997

>  <TransFSScore_200nM>  (352) 
0.14513999999999999

>  <TransFSScore>  (352) 
0.067655499999999993

>  <FeatureSteinScore>  (352) 
0.51267053351867897

$$$$
C#CCCCC(O)C1CC2CCC1N2
     RDKit          3D

 14 15  0  0  0  0  0  0  0  0999 V2000
    9.4606   -0.9885   21.2334 C   0  0  0  0  0  0  0  0  0  0  0  0
    9.9513   -1.5715   22.1676 C   0  0  0  0  0  0  0  0  0  0  0  0
   10.5487   -2.2805   23.3047 C   0  0  0  0  0  0  0  0  0  0  0  0
    9.6745   -3.4687   23.7124 C   0  0  0  0  0  0  0  0  0  0  0  0
   10.3354   -4.2640   24.8460 C   0  0  0  0  0  0  0  0  0  0  0  0
    9.4474   -5.4328   25.3213 C   0  0  1  0  0  0  0  0  0  0  0  0
   10.1555   -6.1928   26.2695 O   0  0  0  0  0  0  0  0  0  0  0  0
    8.1465   -4.9039   25.9756 C   0  0  1  0  0  0  0  0  0  0  0  0
    7.0294   -5.9700   26.0733 C   0  0  0  0  0  0  0  0  0  0  0  0
    6.7468   -5.9856   27.5869 C   0  0  2  0  0  0  0  0  0  0  0  0
    6.0037   -4.6875   27.9570 C   0  0  0  0  0  0  0  0  0  0  0  0
    7.1416   -3.6584   27.8983 C   0  0  0  0  0  0  0  0  0  0  0  0
    8.3301   -4.5446   27.4766 C   0  0  1  0  0  0  0  0  0  0  0  0
    8.0633   -5.7952   28.1713 N   0  0  0  0  0  0  0  0  0  0  0  0
  1  2  3  0
  2  3  1  0
  3  4  1  0
  4  5  1  0
  5  6  1  0
  6  7  1  1
  8  6  1  0
  8  9  1  1
 10  9  1  6
 10 11  1  0
 11 12  1  0
 13 12  1  1
 13 14  1  0
 13  8  1  0
 14 10  1  0
M  END
>  <Hit>  (353) 
Mpro-x0991_0

>  <Receptor>  (353) 
Mpro-x0305_0

>  <SCORE>  (353) 
-11.8361

>  <SCORE.norm>  (353) 
-0.84543699999999999

>  <SCORE.heavy>  (353) 
14

>  <OrigSmiles>  (353) 
C#CCCCC(O)C1CC2CCC1N2

>  <SuCOS_Score>  (353) 
0.42360156540778338

>  <Max_SuCOS_Score>  (353) 
0.42360156540778338

>  <Cum_SuCOS_Score>  (353) 
2.7074334632949855

>  <TransFSScore_50nM>  (353) 
0.0017719999999999999

>  <TransFSScore_1uM>  (353) 
0.089135000000000006

>  <TransFSScore_10nM>  (353) 
0.001848

>  <TransFSScore_200nM>  (353) 
0.041327999999999997

>  <TransFSScore>  (353) 
0.033520750000000002

>  <FeatureSteinScore>  (353) 
0.29397913397625064

$$$$
C#CCCCC(O)CC12CCC(CC1)N2
     RDKit          3D

 15 16  0  0  0  0  0  0  0  0999 V2000
    6.3335   -4.4376   28.4585 C   0  0  0  0  0  0  0  0  0  0  0  0
    7.3464   -5.0137   28.1497 C   0  0  0  0  0  0  0  0  0  0  0  0
    8.5812   -5.7157   27.7747 C   0  0  0  0  0  0  0  0  0  0  0  0
    9.2626   -5.0487   26.5697 C   0  0  0  0  0  0  0  0  0  0  0  0
    8.5118   -5.2601   25.2386 C   0  0  0  0  0  0  0  0  0  0  0  0
    9.1243   -4.4469   24.0825 C   0  0  1  0  0  0  0  0  0  0  0  0
    8.5181   -4.8269   22.8738 O   0  0  0  0  0  0  0  0  0  0  0  0
    8.9392   -2.9193   24.2664 C   0  0  0  0  0  0  0  0  0  0  0  0
    9.7802   -2.0033   23.3305 C   0  0  2  0  0  0  0  0  0  0  0  0
   11.3078   -2.1240   23.5382 C   0  0  0  0  0  0  0  0  0  0  0  0
   11.8350   -1.6076   22.1939 C   0  0  0  0  0  0  0  0  0  0  0  0
   10.5291   -1.2402   21.4761 C   0  0  2  0  0  0  0  0  0  0  0  0
    9.9607    0.0397   22.1171 C   0  0  0  0  0  0  0  0  0  0  0  0
    9.4126   -0.5025   23.4411 C   0  0  0  0  0  0  0  0  0  0  0  0
    9.6241   -2.2896   21.9116 N   0  0  0  0  0  0  0  0  0  0  0  0
  1  2  3  0
  2  3  1  0
  3  4  1  0
  4  5  1  0
  5  6  1  0
  6  7  1  6
  6  8  1  0
  9  8  1  1
  9 10  1  0
 10 11  1  0
 12 11  1  1
 12 13  1  0
 12 15  1  0
 13 14  1  0
 14  9  1  0
 15  9  1  0
M  END
>  <Hit>  (354) 
Mpro-x0991_0

>  <Receptor>  (354) 
Mpro-x0305_0

>  <SCORE>  (354) 
-10.172000000000001

>  <SCORE.norm>  (354) 
-0.67813400000000001

>  <SCORE.heavy>  (354) 
15

>  <OrigSmiles>  (354) 
C#CCCCC(O)CC12CCC(CC1)N2

>  <SuCOS_Score>  (354) 
0.42371800166655077

>  <Max_SuCOS_Score>  (354) 
0.42371800166655077

>  <Cum_SuCOS_Score>  (354) 
3.6153681262357091

>  <TransFSScore_50nM>  (354) 
0.0076

>  <TransFSScore_1uM>  (354) 
0.081431000000000003

>  <TransFSScore_10nM>  (354) 
0.0061539999999999997

>  <TransFSScore_200nM>  (354) 
0.063564999999999997

>  <TransFSScore>  (354) 
0.039687500000000001

>  <FeatureSteinScore>  (354) 
0.37775604594840811

$$$$
C#CCCCC(O)[C@@H]1C[C@@H]2CC[C@H]1N2
     RDKit          3D

 14 15  0  0  0  0  0  0  0  0999 V2000
    9.8891   -4.5176   25.3019 C   0  0  0  0  0  0  0  0  0  0  0  0
    9.1352   -4.2963   24.3876 C   0  0  0  0  0  0  0  0  0  0  0  0
    8.2152   -4.0267   23.2718 C   0  0  0  0  0  0  0  0  0  0  0  0
    8.3300   -2.5634   22.8263 C   0  0  0  0  0  0  0  0  0  0  0  0
    7.5680   -2.2754   21.5209 C   0  0  0  0  0  0  0  0  0  0  0  0
    7.6855   -0.8136   21.0379 C   0  0  2  0  0  0  0  0  0  0  0  0
    6.8041    0.0165   21.7533 O   0  0  0  0  0  0  0  0  0  0  0  0
    7.4461   -0.7050   19.5070 C   0  0  2  0  0  0  0  0  0  0  0  0
    7.3102    0.7381   18.9792 C   0  0  0  0  0  0  0  0  0  0  0  0
    6.0367    0.6241   18.1165 C   0  0  2  0  0  0  0  0  0  0  0  0
    4.8189    0.5729   19.0599 C   0  0  0  0  0  0  0  0  0  0  0  0
    4.8947   -0.8704   19.5749 C   0  0  0  0  0  0  0  0  0  0  0  0
    6.1822   -1.3706   18.8909 C   0  0  1  0  0  0  0  0  0  0  0  0
    6.1050   -0.7302   17.5860 N   0  0  0  0  0  0  0  0  0  0  0  0
  1  2  3  0
  2  3  1  0
  3  4  1  0
  4  5  1  0
  5  6  1  0
  6  7  1  1
  8  6  1  0
  8  9  1  1
 10  9  1  1
 10 11  1  0
 11 12  1  0
 13 12  1  1
 13 14  1  0
 13  8  1  0
 14 10  1  0
M  END
>  <Hit>  (355) 
Mpro-x0991_0

>  <Receptor>  (355) 
Mpro-x1249_0

>  <SCORE>  (355) 
-10.1015

>  <SCORE.norm>  (355) 
-0.72153599999999996

>  <SCORE.heavy>  (355) 
14

>  <OrigSmiles>  (355) 
C#CCCCC(O)[C@@H]1C[C@@H]2CC[C@H]1N2

>  <SuCOS_Score>  (355) 
0.39387474433791769

>  <Max_SuCOS_Score>  (355) 
0.39387474433791769

>  <Cum_SuCOS_Score>  (355) 
3.2023182094478657

>  <TransFSScore_50nM>  (355) 
0.029992999999999999

>  <TransFSScore_1uM>  (355) 
0.37873000000000001

>  <TransFSScore_10nM>  (355) 
0.0083239999999999998

>  <TransFSScore_200nM>  (355) 
0.22220899999999999

>  <TransFSScore>  (355) 
0.15981400000000001

>  <FeatureSteinScore>  (355) 
0.48855030197977961

$$$$
C#CCCCC(O)c1ccc(Br)cc1Cl
     RDKit          3D

 15 15  0  0  0  0  0  0  0  0999 V2000
    7.6872    6.8025   21.8484 C   0  0  0  0  0  0  0  0  0  0  0  0
    8.0817    7.0512   22.9600 C   0  0  0  0  0  0  0  0  0  0  0  0
    8.5610    7.3552   24.3150 C   0  0  0  0  0  0  0  0  0  0  0  0
    8.7875    6.0768   25.1312 C   0  0  0  0  0  0  0  0  0  0  0  0
   10.1150    5.3880   24.7731 C   0  0  0  0  0  0  0  0  0  0  0  0
   10.1586    4.9515   23.2979 C   0  0  1  0  0  0  0  0  0  0  0  0
   10.6646    5.9929   22.4976 O   0  0  0  0  0  0  0  0  0  0  0  0
   11.0385    3.7223   23.1567 C   0  0  0  0  0  0  0  0  0  0  0  0
   10.4541    2.4755   22.8546 C   0  0  0  0  0  0  0  0  0  0  0  0
   11.2470    1.3373   22.6758 C   0  0  0  0  0  0  0  0  0  0  0  0
   12.6375    1.4295   22.7802 C   0  0  0  0  0  0  0  0  0  0  0  0
   13.7435   -0.1111   22.4909 Br  0  0  0  0  0  0  0  0  0  0  0  0
   13.2322    2.6591   23.0688 C   0  0  0  0  0  0  0  0  0  0  0  0
   12.4481    3.8052   23.2475 C   0  0  0  0  0  0  0  0  0  0  0  0
   13.2806    5.3286   23.5487 Cl  0  0  0  0  0  0  0  0  0  0  0  0
  1  2  3  0
  2  3  1  0
  3  4  1  0
  4  5  1  0
  5  6  1  0
  6  7  1  6
  6  8  1  0
  8  9  2  0
  9 10  1  0
 10 11  2  0
 11 12  1  0
 11 13  1  0
 13 14  2  0
 14 15  1  0
 14  8  1  0
M  END
>  <Hit>  (356) 
Mpro-x0946_0

>  <Receptor>  (356) 
Mpro-x0874_0

>  <SCORE>  (356) 
-11.636200000000001

>  <SCORE.norm>  (356) 
-0.77574699999999996

>  <SCORE.heavy>  (356) 
15

>  <OrigSmiles>  (356) 
C#CCCCC(O)c1ccc(Br)cc1Cl

>  <SuCOS_Score>  (356) 
0.62300101238869088

>  <Max_SuCOS_Score>  (356) 
0.62300101238869088

>  <Cum_SuCOS_Score>  (356) 
3.106801973443551

>  <TransFSScore_50nM>  (356) 
0.0025999999999999999

>  <TransFSScore_1uM>  (356) 
0.012465

>  <TransFSScore_10nM>  (356) 
0.00049799999999999996

>  <TransFSScore_200nM>  (356) 
0.004006

>  <TransFSScore>  (356) 
0.0048922499999999999

>  <FeatureSteinScore>  (356) 
0.36654692634574831

$$$$
C#CCCCCC(=O)N1C2CCC1CC2
     RDKit          3D

 15 16  0  0  0  0  0  0  0  0999 V2000
   10.2440   -5.2785   25.8307 C   0  0  0  0  0  0  0  0  0  0  0  0
    9.6136   -4.6855   24.9915 C   0  0  0  0  0  0  0  0  0  0  0  0
    8.8418   -3.9590   23.9700 C   0  0  0  0  0  0  0  0  0  0  0  0
    9.7007   -2.9026   23.2581 C   0  0  0  0  0  0  0  0  0  0  0  0
    8.9934   -2.1960   22.0868 C   0  0  0  0  0  0  0  0  0  0  0  0
    9.8928   -1.1731   21.3799 C   0  0  0  0  0  0  0  0  0  0  0  0
    9.9332    0.1276   22.1403 C   0  0  0  0  0  0  0  0  0  0  0  0
    8.8763    0.6498   22.4689 O   0  0  0  0  0  0  0  0  0  0  0  0
   11.2011    0.8115   22.3558 N   0  0  0  0  0  0  0  0  0  0  0  0
   11.1689    1.9824   23.2370 C   0  0  2  0  0  0  0  0  0  0  0  0
   12.6522    2.4082   23.2745 C   0  0  0  0  0  0  0  0  0  0  0  0
   13.3600    1.0406   23.2442 C   0  0  0  0  0  0  0  0  0  0  0  0
   12.1564    0.0752   23.1847 C   0  0  1  0  0  0  0  0  0  0  0  0
   11.5176    0.0519   24.5920 C   0  0  0  0  0  0  0  0  0  0  0  0
   10.8255    1.4189   24.6365 C   0  0  0  0  0  0  0  0  0  0  0  0
  1  2  3  0
  2  3  1  0
  3  4  1  0
  4  5  1  0
  5  6  1  0
  6  7  1  0
  7  8  2  0
  7  9  1  0
  9 10  1  0
 10 11  1  1
 11 12  1  0
 13 12  1  1
 13 14  1  0
 13  9  1  0
 14 15  1  0
 15 10  1  0
M  END
>  <Hit>  (357) 
Mpro-x0991_0

>  <Receptor>  (357) 
Mpro-x0874_0

>  <SCORE>  (357) 
-6.3374199999999998

>  <SCORE.norm>  (357) 
-0.42249500000000001

>  <SCORE.heavy>  (357) 
15

>  <OrigSmiles>  (357) 
C#CCCCCC(=O)N1C2CCC1CC2

>  <SuCOS_Score>  (357) 
0.36316108430209698

>  <Max_SuCOS_Score>  (357) 
0.36316108430209698

>  <Cum_SuCOS_Score>  (357) 
4.4135452482718156

>  <TransFSScore_50nM>  (357) 
0.0098209999999999999

>  <TransFSScore_1uM>  (357) 
0.228293

>  <TransFSScore_10nM>  (357) 
0.0070229999999999997

>  <TransFSScore_200nM>  (357) 
0.033577000000000003

>  <TransFSScore>  (357) 
0.069678500000000004

>  <FeatureSteinScore>  (357) 
0.4813334072517183

$$$$
C#CCCCCC(=O)NC1C2CNC1C2
     RDKit          3D

 15 16  0  0  0  0  0  0  0  0999 V2000
   13.4912   -1.9660   22.0840 C   0  0  0  0  0  0  0  0  0  0  0  0
   12.4944   -1.5865   22.6459 C   0  0  0  0  0  0  0  0  0  0  0  0
   11.2810   -1.1250   23.3296 C   0  0  0  0  0  0  0  0  0  0  0  0
   10.1556   -2.1545   23.1717 C   0  0  0  0  0  0  0  0  0  0  0  0
   10.3417   -3.3767   24.0847 C   0  0  0  0  0  0  0  0  0  0  0  0
    9.1744   -4.3657   23.9938 C   0  0  0  0  0  0  0  0  0  0  0  0
    9.4572   -5.5853   24.8263 C   0  0  0  0  0  0  0  0  0  0  0  0
    9.6174   -6.6934   24.2476 O   0  0  0  0  0  0  0  0  0  0  0  0
    9.5896   -5.5171   26.2515 N   0  0  0  0  0  0  0  0  0  0  0  0
    9.4026   -4.2844   27.0327 C   0  0  1  0  0  0  0  0  0  0  0  0
    7.9792   -3.9851   27.5058 C   0  0  1  0  0  0  0  0  0  0  0  0
    7.5886   -5.3082   28.1773 C   0  0  0  0  0  0  0  0  0  0  0  0
    8.8167   -5.5866   28.9506 N   0  0  0  0  0  0  0  0  0  0  0  0
    9.6040   -4.4076   28.5495 C   0  0  2  0  0  0  0  0  0  0  0  0
    8.5891   -3.2790   28.7112 C   0  0  0  0  0  0  0  0  0  0  0  0
  1  2  3  0
  2  3  1  0
  3  4  1  0
  4  5  1  0
  5  6  1  0
  6  7  1  0
  7  8  2  0
  7  9  1  0
 10  9  1  6
 10 11  1  0
 11 12  1  1
 12 13  1  0
 13 14  1  0
 14 15  1  1
 14 10  1  0
 15 11  1  0
M  END
>  <Hit>  (358) 
Mpro-x0991_0

>  <Receptor>  (358) 
Mpro-x0387_0

>  <SCORE>  (358) 
-10.5609

>  <SCORE.norm>  (358) 
-0.70405700000000004

>  <SCORE.heavy>  (358) 
15

>  <OrigSmiles>  (358) 
C#CCCCCC(=O)NC1C2CNC1C2

>  <SuCOS_Score>  (358) 
0.4681209640208478

>  <Max_SuCOS_Score>  (358) 
0.4681209640208478

>  <Cum_SuCOS_Score>  (358) 
3.904583900783102

>  <TransFSScore_50nM>  (358) 
0.059629000000000001

>  <TransFSScore_1uM>  (358) 
0.17949799999999999

>  <TransFSScore_10nM>  (358) 
0.017944000000000002

>  <TransFSScore_200nM>  (358) 
0.086204000000000003

>  <TransFSScore>  (358) 
0.085818749999999999

>  <FeatureSteinScore>  (358) 
0.40763888668763115

$$$$
C#CCCCCC=C(C)C1C2CNC1C2
     RDKit          3D

 15 16  0  0  0  0  0  0  0  0999 V2000
   10.4805   -5.6150   25.9196 C   0  0  0  0  0  0  0  0  0  0  0  0
    9.6802   -4.9498   25.3108 C   0  0  0  0  0  0  0  0  0  0  0  0
    8.7046   -4.1369   24.5669 C   0  0  0  0  0  0  0  0  0  0  0  0
    9.3811   -2.9527   23.8569 C   0  0  0  0  0  0  0  0  0  0  0  0
    8.6253   -2.4610   22.6058 C   0  0  0  0  0  0  0  0  0  0  0  0
    9.3162   -1.3161   21.8476 C   0  0  0  0  0  0  0  0  0  0  0  0
    8.5494   -0.9060   20.6124 C   0  0  0  0  0  0  0  0  0  0  0  0
    8.0226    0.3230   20.4042 C   0  0  0  0  0  0  0  0  0  0  0  0
    8.2136    1.4380   21.4074 C   0  0  0  0  0  0  0  0  0  0  0  0
    7.3196    0.6091   19.0769 C   0  0  2  0  0  0  0  0  0  0  0  0
    5.8922    1.1635   19.1644 C   0  0  1  0  0  0  0  0  0  0  0  0
    5.5755    1.2724   17.6685 C   0  0  0  0  0  0  0  0  0  0  0  0
    6.0655   -0.0402   17.1978 N   0  0  0  0  0  0  0  0  0  0  0  0
    6.5287   -0.5702   18.4874 C   0  0  2  0  0  0  0  0  0  0  0  0
    5.3696   -0.2409   19.4202 C   0  0  0  0  0  0  0  0  0  0  0  0
  1  2  3  0
  2  3  1  0
  3  4  1  0
  4  5  1  0
  5  6  1  0
  6  7  1  0
  7  8  2  0
  8  9  1  0
 10  8  1  1
 10 11  1  0
 11 12  1  6
 12 13  1  0
 13 14  1  0
 14 15  1  1
 14 10  1  0
 15 11  1  0
M  END
>  <Hit>  (359) 
Mpro-x0991_0

>  <Receptor>  (359) 
Mpro-x0874_0

>  <SCORE>  (359) 
-16.5565

>  <SCORE.norm>  (359) 
-1.1037600000000001

>  <SCORE.heavy>  (359) 
15

>  <OrigSmiles>  (359) 
C#CCCCCC=C(C)C1C2CNC1C2

>  <SuCOS_Score>  (359) 
0.39186910000751246

>  <Max_SuCOS_Score>  (359) 
0.39186910000751246

>  <Cum_SuCOS_Score>  (359) 
3.9824706663395202

>  <TransFSScore_50nM>  (359) 
0.039766000000000003

>  <TransFSScore_1uM>  (359) 
0.26951199999999997

>  <TransFSScore_10nM>  (359) 
0.0091929999999999998

>  <TransFSScore_200nM>  (359) 
0.70806599999999997

>  <TransFSScore>  (359) 
0.25663425000000001

>  <FeatureSteinScore>  (359) 
0.55616647797641561

$$$$
C#CCCCCCC(O)C12CC(CN1)C2
     RDKit          3D

 15 16  0  0  0  0  0  0  0  0999 V2000
   10.8509   -5.2497   26.4338 C   0  0  0  0  0  0  0  0  0  0  0  0
   10.0484   -5.0932   25.5480 C   0  0  0  0  0  0  0  0  0  0  0  0
    9.0690   -4.9019   24.4670 C   0  0  0  0  0  0  0  0  0  0  0  0
    9.2335   -3.5170   23.8339 C   0  0  0  0  0  0  0  0  0  0  0  0
    8.1896   -3.2918   22.7296 C   0  0  0  0  0  0  0  0  0  0  0  0
    8.2837   -1.8931   22.0990 C   0  0  0  0  0  0  0  0  0  0  0  0
    7.3100   -1.7064   20.9228 C   0  0  0  0  0  0  0  0  0  0  0  0
    7.3819   -0.2803   20.3472 C   0  0  1  0  0  0  0  0  0  0  0  0
    8.6634   -0.0635   19.8106 O   0  0  0  0  0  0  0  0  0  0  0  0
    6.3131   -0.0562   19.2541 C   0  0  2  0  0  0  0  0  0  0  0  0
    4.8414   -0.2229   19.6217 C   0  0  0  0  0  0  0  0  0  0  0  0
    4.7028    0.6484   18.3825 C   0  0  2  0  0  0  0  0  0  0  0  0
    5.2345   -0.3281   17.3257 C   0  0  0  0  0  0  0  0  0  0  0  0
    6.4411   -0.8371   18.0127 N   0  0  0  0  0  0  0  0  0  0  0  0
    6.0001    1.3519   18.7638 C   0  0  0  0  0  0  0  0  0  0  0  0
  1  2  3  0
  2  3  1  0
  3  4  1  0
  4  5  1  0
  5  6  1  0
  6  7  1  0
  7  8  1  0
  8  9  1  6
 10  8  1  0
 10 11  1  1
 12 11  1  1
 12 13  1  0
 12 15  1  0
 13 14  1  0
 14 10  1  0
 15 10  1  0
M  END
>  <Hit>  (360) 
Mpro-x0991_0

>  <Receptor>  (360) 
Mpro-x0387_0

>  <SCORE>  (360) 
-10.536099999999999

>  <SCORE.norm>  (360) 
-0.70240499999999995

>  <SCORE.heavy>  (360) 
15

>  <OrigSmiles>  (360) 
C#CCCCCCC(O)C12CC(CN1)C2

>  <SuCOS_Score>  (360) 
0.39745804414588887

>  <Max_SuCOS_Score>  (360) 
0.39745804414588887

>  <Cum_SuCOS_Score>  (360) 
3.3045252826637834

>  <TransFSScore_50nM>  (360) 
0.016060999999999999

>  <TransFSScore_1uM>  (360) 
0.25223499999999999

>  <TransFSScore_10nM>  (360) 
0.024999

>  <TransFSScore_200nM>  (360) 
0.39472499999999999

>  <TransFSScore>  (360) 
0.17200499999999999

>  <FeatureSteinScore>  (360) 
0.32627804223485979

$$$$
C#CCCCCCN1C2CCC1CC2
     RDKit          3D

 14 15  0  0  0  0  0  0  0  0999 V2000
   10.3848   -5.3742   25.5058 C   0  0  0  0  0  0  0  0  0  0  0  0
    9.6479   -4.7358   24.7967 C   0  0  0  0  0  0  0  0  0  0  0  0
    8.7489   -3.9573   23.9308 C   0  0  0  0  0  0  0  0  0  0  0  0
    9.5566   -3.0006   23.0447 C   0  0  0  0  0  0  0  0  0  0  0  0
    8.6613   -2.0780   22.2029 C   0  0  0  0  0  0  0  0  0  0  0  0
    9.4677   -1.1556   21.2762 C   0  0  0  0  0  0  0  0  0  0  0  0
    8.5595   -0.1313   20.5902 C   0  0  0  0  0  0  0  0  0  0  0  0
    7.5526   -0.8327   19.7632 N   0  0  0  0  0  0  0  0  0  0  0  0
    6.2135   -0.8837   20.3343 C   0  0  1  0  0  0  0  0  0  0  0  0
    5.6974    0.5699   20.2918 C   0  0  0  0  0  0  0  0  0  0  0  0
    6.3307    1.0818   18.9951 C   0  0  0  0  0  0  0  0  0  0  0  0
    7.1384   -0.1546   18.5386 C   0  0  2  0  0  0  0  0  0  0  0  0
    6.1372   -1.1730   17.9693 C   0  0  0  0  0  0  0  0  0  0  0  0
    5.4624   -1.6855   19.2570 C   0  0  0  0  0  0  0  0  0  0  0  0
  1  2  3  0
  2  3  1  0
  3  4  1  0
  4  5  1  0
  5  6  1  0
  6  7  1  0
  7  8  1  0
  8  9  1  0
  9 10  1  6
 10 11  1  0
 12 11  1  1
 12 13  1  0
 12  8  1  0
 13 14  1  0
 14  9  1  0
M  END
>  <Hit>  (361) 
Mpro-x0991_0

>  <Receptor>  (361) 
Mpro-x0305_0

>  <SCORE>  (361) 
-5.8314899999999996

>  <SCORE.norm>  (361) 
-0.41653499999999999

>  <SCORE.heavy>  (361) 
14

>  <OrigSmiles>  (361) 
C#CCCCCCN1C2CCC1CC2

>  <SuCOS_Score>  (361) 
0.37907921853149329

>  <Max_SuCOS_Score>  (361) 
0.37907921853149329

>  <Cum_SuCOS_Score>  (361) 
3.4700132385607008

>  <TransFSScore_50nM>  (361) 
0.019764

>  <TransFSScore_1uM>  (361) 
0.11554

>  <TransFSScore_10nM>  (361) 
0.0049199999999999999

>  <TransFSScore_200nM>  (361) 
0.24516499999999999

>  <TransFSScore>  (361) 
0.096347249999999995

>  <FeatureSteinScore>  (361) 
0.5328930674741168

$$$$
C#CCCCCCN1C2CCC1CNC2
     RDKit          3D

 15 16  0  0  0  0  0  0  0  0999 V2000
   10.2405   -5.2153   25.6717 C   0  0  0  0  0  0  0  0  0  0  0  0
    9.4156   -5.1226   24.7975 C   0  0  0  0  0  0  0  0  0  0  0  0
    8.4090   -5.0103   23.7307 C   0  0  0  0  0  0  0  0  0  0  0  0
    8.3253   -3.5644   23.2253 C   0  0  0  0  0  0  0  0  0  0  0  0
    7.4004   -3.4174   22.0070 C   0  0  0  0  0  0  0  0  0  0  0  0
    6.9854   -1.9604   21.7512 C   0  0  0  0  0  0  0  0  0  0  0  0
    6.1846   -1.8367   20.4435 C   0  0  0  0  0  0  0  0  0  0  0  0
    5.5557   -0.4976   20.3083 N   0  0  0  0  0  0  0  0  0  0  0  0
    6.4794    0.6429   20.3833 C   0  0  2  0  0  0  0  0  0  0  0  0
    5.5803    1.8580   20.0904 C   0  0  0  0  0  0  0  0  0  0  0  0
    4.4742    1.2859   19.1912 C   0  0  0  0  0  0  0  0  0  0  0  0
    4.8428   -0.2034   19.0556 C   0  0  1  0  0  0  0  0  0  0  0  0
    5.7836   -0.3851   17.8313 C   0  0  0  0  0  0  0  0  0  0  0  0
    6.9772    0.4813   17.9268 N   0  0  0  0  0  0  0  0  0  0  0  0
    7.5708    0.5391   19.2792 C   0  0  0  0  0  0  0  0  0  0  0  0
  1  2  3  0
  2  3  1  0
  3  4  1  0
  4  5  1  0
  5  6  1  0
  6  7  1  0
  7  8  1  0
  8  9  1  0
  9 10  1  6
 10 11  1  0
 12 11  1  1
 12 13  1  0
 12  8  1  0
 13 14  1  0
 14 15  1  0
 15  9  1  0
M  END
>  <Hit>  (362) 
Mpro-x0991_0

>  <Receptor>  (362) 
Mpro-x0305_0

>  <SCORE>  (362) 
-11.210800000000001

>  <SCORE.norm>  (362) 
-0.74738599999999999

>  <SCORE.heavy>  (362) 
15

>  <OrigSmiles>  (362) 
C#CCCCCCN1C2CCC1CNC2

>  <SuCOS_Score>  (362) 
0.50264186998290084

>  <Max_SuCOS_Score>  (362) 
0.50264186998290084

>  <Cum_SuCOS_Score>  (362) 
3.22153469930028

>  <TransFSScore_50nM>  (362) 
0.16500100000000001

>  <TransFSScore_1uM>  (362) 
0.147123

>  <TransFSScore_10nM>  (362) 
0.0081449999999999995

>  <TransFSScore_200nM>  (362) 
0.15990799999999999

>  <TransFSScore>  (362) 
0.12004425000000001

>  <FeatureSteinScore>  (362) 
0.40715822770682464

$$$$
C#CCCCCCN1[C@H]2CC[C@@H]1CNC2
     RDKit          3D

 15 16  0  0  0  0  0  0  0  0999 V2000
    9.6668   -5.5223   24.9262 C   0  0  0  0  0  0  0  0  0  0  0  0
    9.0401   -4.8355   24.1587 C   0  0  0  0  0  0  0  0  0  0  0  0
    8.2752   -3.9976   23.2210 C   0  0  0  0  0  0  0  0  0  0  0  0
    9.1177   -2.8224   22.6990 C   0  0  0  0  0  0  0  0  0  0  0  0
    8.3085   -1.7829   21.9025 C   0  0  0  0  0  0  0  0  0  0  0  0
    9.1933   -0.7588   21.1770 C   0  0  0  0  0  0  0  0  0  0  0  0
    8.3409    0.3364   20.5107 C   0  0  0  0  0  0  0  0  0  0  0  0
    7.4235   -0.2273   19.4843 N   0  0  0  0  0  0  0  0  0  0  0  0
    6.1817   -0.7865   20.0473 C   0  0  1  0  0  0  0  0  0  0  0  0
    5.2840    0.4224   20.3730 C   0  0  0  0  0  0  0  0  0  0  0  0
    5.7730    1.5085   19.4268 C   0  0  0  0  0  0  0  0  0  0  0  0
    6.8643    0.8091   18.6017 C   0  0  2  0  0  0  0  0  0  0  0  0
    6.2266    0.1243   17.3530 C   0  0  0  0  0  0  0  0  0  0  0  0
    5.8669   -1.3001   17.5757 N   0  0  0  0  0  0  0  0  0  0  0  0
    5.4990   -1.6747   18.9657 C   0  0  0  0  0  0  0  0  0  0  0  0
  1  2  3  0
  2  3  1  0
  3  4  1  0
  4  5  1  0
  5  6  1  0
  6  7  1  0
  7  8  1  0
  8  9  1  0
  9 10  1  6
 10 11  1  0
 12 11  1  1
 12 13  1  0
 12  8  1  0
 13 14  1  0
 14 15  1  0
 15  9  1  0
M  END
>  <Hit>  (363) 
Mpro-x0991_0

>  <Receptor>  (363) 
Mpro-x0387_0

>  <SCORE>  (363) 
-10.2469

>  <SCORE.norm>  (363) 
-0.68312499999999998

>  <SCORE.heavy>  (363) 
15

>  <OrigSmiles>  (363) 
C#CCCCCCN1[C@H]2CC[C@@H]1CNC2

>  <SuCOS_Score>  (363) 
0.43649937039204395

>  <Max_SuCOS_Score>  (363) 
0.43649937039204395

>  <Cum_SuCOS_Score>  (363) 
3.5657258973032326

>  <TransFSScore_50nM>  (363) 
0.055641000000000003

>  <TransFSScore_1uM>  (363) 
0.058644000000000002

>  <TransFSScore_10nM>  (363) 
0.00090700000000000004

>  <TransFSScore_200nM>  (363) 
0.13145299999999999

>  <TransFSScore>  (363) 
0.061661250000000001

>  <FeatureSteinScore>  (363) 
0.41070170026671105

$$$$
C#CCCCCNC(=O)C12CC(CN1)C2
     RDKit          3D

 15 16  0  0  0  0  0  0  0  0999 V2000
    6.2898   -5.8302   20.6621 C   0  0  0  0  0  0  0  0  0  0  0  0
    6.7314   -5.4592   21.7208 C   0  0  0  0  0  0  0  0  0  0  0  0
    7.2689   -5.0065   23.0107 C   0  0  0  0  0  0  0  0  0  0  0  0
    8.5029   -4.1150   22.8243 C   0  0  0  0  0  0  0  0  0  0  0  0
    9.0824   -3.6348   24.1637 C   0  0  0  0  0  0  0  0  0  0  0  0
    9.6535   -4.8023   24.9847 C   0  0  0  0  0  0  0  0  0  0  0  0
   10.2869   -4.3178   26.2024 N   0  0  0  0  0  0  0  0  0  0  0  0
    9.6820   -4.2651   27.5010 C   0  0  0  0  0  0  0  0  0  0  0  0
   10.3520   -3.7875   28.4542 O   0  0  0  0  0  0  0  0  0  0  0  0
    8.3086   -4.8227   27.7874 C   0  0  1  0  0  0  0  0  0  0  0  0
    7.0500   -4.1043   27.3163 C   0  0  0  0  0  0  0  0  0  0  0  0
    6.4723   -4.9123   28.4703 C   0  0  1  0  0  0  0  0  0  0  0  0
    6.6853   -6.3332   27.9265 C   0  0  0  0  0  0  0  0  0  0  0  0
    8.0747   -6.2278   27.4291 N   0  0  0  0  0  0  0  0  0  0  0  0
    7.7838   -4.7295   29.2170 C   0  0  0  0  0  0  0  0  0  0  0  0
  1  2  3  0
  2  3  1  0
  3  4  1  0
  4  5  1  0
  5  6  1  0
  6  7  1  0
  7  8  1  0
  8  9  2  0
 10  8  1  1
 10 11  1  0
 12 11  1  6
 12 13  1  0
 12 15  1  0
 13 14  1  0
 14 10  1  0
 15 10  1  0
M  END
>  <Hit>  (364) 
Mpro-x0991_0

>  <Receptor>  (364) 
Mpro-x0387_0

>  <SCORE>  (364) 
-5.8131000000000004

>  <SCORE.norm>  (364) 
-0.38754

>  <SCORE.heavy>  (364) 
15

>  <OrigSmiles>  (364) 
C#CCCCCNC(=O)C12CC(CN1)C2

>  <SuCOS_Score>  (364) 
0.49861324932350604

>  <Max_SuCOS_Score>  (364) 
0.49861324932350604

>  <Cum_SuCOS_Score>  (364) 
1.5841818063720712

>  <TransFSScore_50nM>  (364) 
0.0035100000000000001

>  <TransFSScore_1uM>  (364) 
0.17728099999999999

>  <TransFSScore_10nM>  (364) 
0.015122999999999999

>  <TransFSScore_200nM>  (364) 
0.11301799999999999

>  <TransFSScore>  (364) 
0.077232999999999996

>  <FeatureSteinScore>  (364) 
0.3374344099526348

$$$$
C#CCCCN(c1ccc(Br)cc1Cl)S(C)(=O)=O
     RDKit          3D

 18 18  0  0  0  0  0  0  0  0999 V2000
    7.9941    6.1953   21.5104 C   0  0  0  0  0  0  0  0  0  0  0  0
    7.7746    5.6958   22.5853 C   0  0  0  0  0  0  0  0  0  0  0  0
    7.5072    5.0875   23.8936 C   0  0  0  0  0  0  0  0  0  0  0  0
    7.9720    3.6288   23.9103 C   0  0  0  0  0  0  0  0  0  0  0  0
    9.4852    3.5354   24.1810 C   0  0  0  0  0  0  0  0  0  0  0  0
   10.2868    3.6555   22.9396 N   0  0  0  0  0  0  0  0  0  0  0  0
   10.9966    2.4175   22.6369 C   0  0  0  0  0  0  0  0  0  0  0  0
   12.2962    2.2355   23.1569 C   0  0  0  0  0  0  0  0  0  0  0  0
   13.0286    1.0795   22.8861 C   0  0  0  0  0  0  0  0  0  0  0  0
   12.4869    0.0764   22.0853 C   0  0  0  0  0  0  0  0  0  0  0  0
   13.5277   -1.4864   21.6922 Br  0  0  0  0  0  0  0  0  0  0  0  0
   11.2004    0.2239   21.5627 C   0  0  0  0  0  0  0  0  0  0  0  0
   10.4498    1.3791   21.8268 C   0  0  0  0  0  0  0  0  0  0  0  0
    8.8364    1.4369   21.1238 Cl  0  0  0  0  0  0  0  0  0  0  0  0
   11.3704    5.0384   22.9384 S   0  0  0  0  0  0  0  0  0  0  0  0
   12.1940    5.1504   24.5142 C   0  0  0  0  0  0  0  0  0  0  0  0
   10.6020    6.3148   22.7296 O   0  0  0  0  0  0  0  0  0  0  0  0
   12.4112    4.9122   21.8600 O   0  0  0  0  0  0  0  0  0  0  0  0
  1  2  3  0
  2  3  1  0
  3  4  1  0
  4  5  1  0
  5  6  1  0
  6  7  1  0
  6 15  1  0
  7  8  2  0
  8  9  1  0
  9 10  2  0
 10 11  1  0
 10 12  1  0
 12 13  2  0
 13 14  1  0
 13  7  1  0
 15 16  1  0
 15 17  2  0
 15 18  2  0
M  END
>  <Hit>  (365) 
Mpro-x0946_0

>  <Receptor>  (365) 
Mpro-x1249_0

>  <SCORE>  (365) 
-11.8291

>  <SCORE.norm>  (365) 
-0.65717199999999998

>  <SCORE.heavy>  (365) 
18

>  <OrigSmiles>  (365) 
C#CCCCN(c1ccc(Br)cc1Cl)S(C)(=O)=O

>  <SuCOS_Score>  (365) 
0.4135430978514798

>  <Max_SuCOS_Score>  (365) 
0.4135430978514798

>  <Cum_SuCOS_Score>  (365) 
3.4841844959377908

>  <TransFSScore_50nM>  (365) 
0.020454

>  <TransFSScore_1uM>  (365) 
0.019018

>  <TransFSScore_10nM>  (365) 
0.013631000000000001

>  <TransFSScore_200nM>  (365) 
0.022141999999999998

>  <TransFSScore>  (365) 
0.018811249999999998

>  <FeatureSteinScore>  (365) 
0.10314918739151678

$$$$
C#CCCCN1C2CCC1CC2
     RDKit          3D

 12 13  0  0  0  0  0  0  0  0999 V2000
   10.7702   -5.2324   26.3704 C   0  0  0  0  0  0  0  0  0  0  0  0
    9.9756   -5.2990   25.4664 C   0  0  0  0  0  0  0  0  0  0  0  0
    9.0062   -5.3808   24.3632 C   0  0  0  0  0  0  0  0  0  0  0  0
    8.8669   -4.0197   23.6715 C   0  0  0  0  0  0  0  0  0  0  0  0
    8.0133   -4.1092   22.4041 C   0  0  0  0  0  0  0  0  0  0  0  0
    6.6787   -4.6609   22.7394 N   0  0  0  0  0  0  0  0  0  0  0  0
    6.4417   -6.0324   22.3027 C   0  0  1  0  0  0  0  0  0  0  0  0
    5.0113   -6.2637   22.8156 C   0  0  0  0  0  0  0  0  0  0  0  0
    4.3789   -4.8784   22.5833 C   0  0  0  0  0  0  0  0  0  0  0  0
    5.5634   -4.1000   21.9866 C   0  0  2  0  0  0  0  0  0  0  0  0
    5.7680   -4.5853   20.5354 C   0  0  0  0  0  0  0  0  0  0  0  0
    6.3841   -5.9678   20.7599 C   0  0  0  0  0  0  0  0  0  0  0  0
  1  2  3  0
  2  3  1  0
  3  4  1  0
  4  5  1  0
  5  6  1  0
  6  7  1  0
  7  8  1  1
  8  9  1  0
 10  9  1  1
 10 11  1  0
 10  6  1  0
 11 12  1  0
 12  7  1  0
M  END
>  <Hit>  (366) 
Mpro-x0991_0

>  <Receptor>  (366) 
Mpro-x0387_0

>  <SCORE>  (366) 
-3.4283700000000001

>  <SCORE.norm>  (366) 
-0.28569699999999998

>  <SCORE.heavy>  (366) 
12

>  <OrigSmiles>  (366) 
C#CCCCN1C2CCC1CC2

>  <SuCOS_Score>  (366) 
0.43149700274540398

>  <Max_SuCOS_Score>  (366) 
0.43149700274540398

>  <Cum_SuCOS_Score>  (366) 
1.2493156963544949

>  <TransFSScore_50nM>  (366) 
0.015428000000000001

>  <TransFSScore_1uM>  (366) 
0.094752000000000003

>  <TransFSScore_10nM>  (366) 
0.001934

>  <TransFSScore_200nM>  (366) 
0.17621700000000001

>  <TransFSScore>  (366) 
0.072082750000000001

>  <FeatureSteinScore>  (366) 
0.38932233288361873

$$$$
C#CCCCN1C2CCC1CNC2
     RDKit          3D

 13 14  0  0  0  0  0  0  0  0999 V2000
   10.7827   -5.3929   26.4905 C   0  0  0  0  0  0  0  0  0  0  0  0
    9.8826   -5.1317   25.7323 C   0  0  0  0  0  0  0  0  0  0  0  0
    8.7845   -4.8127   24.8049 C   0  0  0  0  0  0  0  0  0  0  0  0
    9.2847   -3.9860   23.6140 C   0  0  0  0  0  0  0  0  0  0  0  0
    8.1316   -3.4156   22.7749 C   0  0  0  0  0  0  0  0  0  0  0  0
    7.1263   -4.4704   22.5118 N   0  0  0  0  0  0  0  0  0  0  0  0
    5.8773   -4.2592   23.2477 C   0  0  1  0  0  0  0  0  0  0  0  0
    5.0966   -3.1903   22.4691 C   0  0  0  0  0  0  0  0  0  0  0  0
    5.5955   -3.3449   21.0350 C   0  0  0  0  0  0  0  0  0  0  0  0
    6.6390   -4.4707   21.1282 C   0  0  2  0  0  0  0  0  0  0  0  0
    5.9730   -5.8488   20.9050 C   0  0  0  0  0  0  0  0  0  0  0  0
    4.8522   -6.0783   21.8489 N   0  0  0  0  0  0  0  0  0  0  0  0
    5.1265   -5.6130   23.2302 C   0  0  0  0  0  0  0  0  0  0  0  0
  1  2  3  0
  2  3  1  0
  3  4  1  0
  4  5  1  0
  5  6  1  0
  6  7  1  0
  7  8  1  6
  8  9  1  0
 10  9  1  1
 10 11  1  0
 10  6  1  0
 11 12  1  0
 12 13  1  0
 13  7  1  0
M  END
>  <Hit>  (367) 
Mpro-x0991_0

>  <Receptor>  (367) 
Mpro-x0387_0

>  <SCORE>  (367) 
-6.2226400000000002

>  <SCORE.norm>  (367) 
-0.47866500000000001

>  <SCORE.heavy>  (367) 
13

>  <OrigSmiles>  (367) 
C#CCCCN1C2CCC1CNC2

>  <SuCOS_Score>  (367) 
0.43878875809345824

>  <Max_SuCOS_Score>  (367) 
0.43878875809345824

>  <Cum_SuCOS_Score>  (367) 
1.4163205055713504

>  <TransFSScore_50nM>  (367) 
0.0069969999999999997

>  <TransFSScore_1uM>  (367) 
0.031085999999999999

>  <TransFSScore_10nM>  (367) 
0.0060699999999999999

>  <TransFSScore_200nM>  (367) 
0.20602500000000001

>  <TransFSScore>  (367) 
0.062544500000000003

>  <FeatureSteinScore>  (367) 
0.4102391852867911

$$$$
C#CCCCN1CC2CC1C2
     RDKit          3D

 11 12  0  0  0  0  0  0  0  0999 V2000
    6.0786   -3.9328   21.2888 C   0  0  0  0  0  0  0  0  0  0  0  0
    7.0554   -4.1548   21.9597 C   0  0  0  0  0  0  0  0  0  0  0  0
    8.2436   -4.4248   22.7769 C   0  0  0  0  0  0  0  0  0  0  0  0
    7.9790   -5.5886   23.7380 C   0  0  0  0  0  0  0  0  0  0  0  0
    9.2264   -5.9205   24.5831 C   0  0  0  0  0  0  0  0  0  0  0  0
    9.6687   -4.7747   25.4132 N   0  0  0  0  0  0  0  0  0  0  0  0
   10.7937   -5.1065   26.3260 C   0  0  0  0  0  0  0  0  0  0  0  0
   10.1947   -4.6805   27.6757 C   0  0  2  0  0  0  0  0  0  0  0  0
    8.8305   -5.3353   27.5714 C   0  0  0  0  0  0  0  0  0  0  0  0
    8.7027   -4.3191   26.4354 C   0  0  1  0  0  0  0  0  0  0  0  0
    9.5501   -3.3642   27.2727 C   0  0  0  0  0  0  0  0  0  0  0  0
  1  2  3  0
  2  3  1  0
  3  4  1  0
  4  5  1  0
  5  6  1  0
  6  7  1  0
  8  7  1  6
  8  9  1  0
 10  9  1  1
 10 11  1  0
 10  6  1  0
 11  8  1  0
M  END
>  <Hit>  (368) 
Mpro-x0991_0

>  <Receptor>  (368) 
Mpro-x0387_0

>  <SCORE>  (368) 
-2.97221

>  <SCORE.norm>  (368) 
-0.27020100000000002

>  <SCORE.heavy>  (368) 
11

>  <OrigSmiles>  (368) 
C#CCCCN1CC2CC1C2

>  <SuCOS_Score>  (368) 
0.56435556896372907

>  <Max_SuCOS_Score>  (368) 
0.56435556896372907

>  <Cum_SuCOS_Score>  (368) 
1.5694583591116611

>  <TransFSScore_50nM>  (368) 
0.010828000000000001

>  <TransFSScore_1uM>  (368) 
0.078782000000000005

>  <TransFSScore_10nM>  (368) 
0.0043099999999999996

>  <TransFSScore_200nM>  (368) 
0.087485999999999994

>  <TransFSScore>  (368) 
0.045351500000000003

>  <FeatureSteinScore>  (368) 
0.27182096392245447

$$$$
C#CCCCN1[C@H]2CC[C@@H]1CNC2
     RDKit          3D

 13 14  0  0  0  0  0  0  0  0999 V2000
    9.1855   -0.7870   20.7817 C   0  0  0  0  0  0  0  0  0  0  0  0
    9.3237   -1.6362   21.6261 C   0  0  0  0  0  0  0  0  0  0  0  0
    9.4921   -2.6694   22.6541 C   0  0  0  0  0  0  0  0  0  0  0  0
    8.3263   -3.6600   22.6120 C   0  0  0  0  0  0  0  0  0  0  0  0
    8.5428   -4.7977   23.6225 C   0  0  0  0  0  0  0  0  0  0  0  0
    8.4701   -4.3096   25.0237 N   0  0  0  0  0  0  0  0  0  0  0  0
    9.6427   -3.6027   25.5599 C   0  0  1  0  0  0  0  0  0  0  0  0
    9.2961   -3.3990   27.0462 C   0  0  0  0  0  0  0  0  0  0  0  0
    8.3715   -4.5803   27.3726 C   0  0  0  0  0  0  0  0  0  0  0  0
    8.2772   -5.3495   26.0430 C   0  0  2  0  0  0  0  0  0  0  0  0
    9.4181   -6.4060   25.9743 C   0  0  0  0  0  0  0  0  0  0  0  0
   10.7625   -5.7969   26.1120 N   0  0  0  0  0  0  0  0  0  0  0  0
   10.9194   -4.4833   25.4433 C   0  0  0  0  0  0  0  0  0  0  0  0
  1  2  3  0
  2  3  1  0
  3  4  1  0
  4  5  1  0
  5  6  1  0
  6  7  1  0
  7  8  1  1
  8  9  1  0
 10  9  1  1
 10 11  1  0
 10  6  1  0
 11 12  1  0
 12 13  1  0
 13  7  1  0
M  END
>  <Hit>  (369) 
Mpro-x0991_0

>  <Receptor>  (369) 
Mpro-x0387_0

>  <SCORE>  (369) 
-6.5620399999999997

>  <SCORE.norm>  (369) 
-0.50477300000000003

>  <SCORE.heavy>  (369) 
13

>  <OrigSmiles>  (369) 
C#CCCCN1[C@H]2CC[C@@H]1CNC2

>  <SuCOS_Score>  (369) 
0.52489215558077129

>  <Max_SuCOS_Score>  (369) 
0.52489215558077129

>  <Cum_SuCOS_Score>  (369) 
2.6072542868699204

>  <TransFSScore_50nM>  (369) 
0.012154

>  <TransFSScore_1uM>  (369) 
0.118251

>  <TransFSScore_10nM>  (369) 
0.0027130000000000001

>  <TransFSScore_200nM>  (369) 
0.015847

>  <TransFSScore>  (369) 
0.037241249999999997

>  <FeatureSteinScore>  (369) 
0.37361736409451546

$$$$
C#CCCCNC(=O)C12CC(CN1)C2
     RDKit          3D

 14 15  0  0  0  0  0  0  0  0999 V2000
   10.6924   -1.8936   22.1418 C   0  0  0  0  0  0  0  0  0  0  0  0
    9.7499   -2.3766   22.7178 C   0  0  0  0  0  0  0  0  0  0  0  0
    8.6024   -2.9643   23.4183 C   0  0  0  0  0  0  0  0  0  0  0  0
    8.9498   -4.3636   23.9328 C   0  0  0  0  0  0  0  0  0  0  0  0
   10.1308   -4.3320   24.9187 C   0  0  0  0  0  0  0  0  0  0  0  0
    9.8266   -3.5110   26.0853 N   0  0  0  0  0  0  0  0  0  0  0  0
   10.3247   -2.1760   26.2441 C   0  0  0  0  0  0  0  0  0  0  0  0
   11.1456   -1.6978   25.4156 O   0  0  0  0  0  0  0  0  0  0  0  0
    9.8376   -1.3250   27.3802 C   0  0  2  0  0  0  0  0  0  0  0  0
    8.3505   -1.0220   27.4958 C   0  0  0  0  0  0  0  0  0  0  0  0
    8.7845   -0.7736   28.9345 C   0  0  2  0  0  0  0  0  0  0  0  0
    9.7036    0.4386   28.7204 C   0  0  0  0  0  0  0  0  0  0  0  0
   10.4783   -0.0148   27.5446 N   0  0  0  0  0  0  0  0  0  0  0  0
    9.8043   -1.8956   28.7920 C   0  0  0  0  0  0  0  0  0  0  0  0
  1  2  3  0
  2  3  1  0
  3  4  1  0
  4  5  1  0
  5  6  1  0
  6  7  1  0
  7  8  2  0
  9  7  1  6
  9 10  1  0
 11 10  1  6
 11 12  1  0
 11 14  1  0
 12 13  1  0
 13  9  1  0
 14  9  1  0
M  END
>  <Hit>  (370) 
Mpro-x0991_0

>  <Receptor>  (370) 
Mpro-x0387_0

>  <SCORE>  (370) 
-4.1457199999999998

>  <SCORE.norm>  (370) 
-0.29612300000000003

>  <SCORE.heavy>  (370) 
14

>  <OrigSmiles>  (370) 
C#CCCCNC(=O)C12CC(CN1)C2

>  <SuCOS_Score>  (370) 
0.35395563494463067

>  <Max_SuCOS_Score>  (370) 
0.35395563494463067

>  <Cum_SuCOS_Score>  (370) 
2.5053338501958233

>  <TransFSScore_50nM>  (370) 
0.012793000000000001

>  <TransFSScore_1uM>  (370) 
0.108282

>  <TransFSScore_10nM>  (370) 
0.003555

>  <TransFSScore_200nM>  (370) 
0.019453999999999999

>  <TransFSScore>  (370) 
0.036020999999999997

>  <FeatureSteinScore>  (370) 
0.35075956603346764

$$$$
C#CCCCNC(=O)C12CCC(CC1)N2
     RDKit          3D

 15 16  0  0  0  0  0  0  0  0999 V2000
    7.1508   -1.9499   21.2844 C   0  0  0  0  0  0  0  0  0  0  0  0
    7.9619   -2.3996   22.0547 C   0  0  0  0  0  0  0  0  0  0  0  0
    8.9502   -2.9487   22.9934 C   0  0  0  0  0  0  0  0  0  0  0  0
    8.6295   -4.4015   23.3618 C   0  0  0  0  0  0  0  0  0  0  0  0
    9.4808   -4.9118   24.5417 C   0  0  0  0  0  0  0  0  0  0  0  0
    9.3420   -4.0536   25.7119 N   0  0  0  0  0  0  0  0  0  0  0  0
    8.1114   -3.6742   26.3444 C   0  0  0  0  0  0  0  0  0  0  0  0
    7.9275   -2.4536   26.5967 O   0  0  0  0  0  0  0  0  0  0  0  0
    7.0506   -4.6813   26.7553 C   0  0  2  0  0  0  0  0  0  0  0  0
    6.3052   -5.3511   25.5794 C   0  0  0  0  0  0  0  0  0  0  0  0
    5.7664   -6.6214   26.2536 C   0  0  0  0  0  0  0  0  0  0  0  0
    6.2746   -6.4454   27.6987 C   0  0  2  0  0  0  0  0  0  0  0  0
    5.4254   -5.3543   28.3737 C   0  0  0  0  0  0  0  0  0  0  0  0
    5.9804   -4.0879   27.7090 C   0  0  0  0  0  0  0  0  0  0  0  0
    7.5702   -5.8061   27.5249 N   0  0  0  0  0  0  0  0  0  0  0  0
  1  2  3  0
  2  3  1  0
  3  4  1  0
  4  5  1  0
  5  6  1  0
  6  7  1  0
  7  8  2  0
  9  7  1  6
  9 10  1  0
 10 11  1  0
 12 11  1  6
 12 13  1  0
 12 15  1  0
 13 14  1  0
 14  9  1  0
 15  9  1  0
M  END
>  <Hit>  (371) 
Mpro-x0991_0

>  <Receptor>  (371) 
Mpro-x0874_0

>  <SCORE>  (371) 
-4.2660299999999998

>  <SCORE.norm>  (371) 
-0.28440199999999999

>  <SCORE.heavy>  (371) 
15

>  <OrigSmiles>  (371) 
C#CCCCNC(=O)C12CCC(CC1)N2

>  <SuCOS_Score>  (371) 
0.5100339473528237

>  <Max_SuCOS_Score>  (371) 
0.5100339473528237

>  <Cum_SuCOS_Score>  (371) 
2.1344736615281668

>  <TransFSScore_50nM>  (371) 
0.0085810000000000001

>  <TransFSScore_1uM>  (371) 
0.14049300000000001

>  <TransFSScore_10nM>  (371) 
0.016746

>  <TransFSScore_200nM>  (371) 
0.015089999999999999

>  <TransFSScore>  (371) 
0.045227500000000004

>  <FeatureSteinScore>  (371) 
0.46140643579530222

$$$$
C#CCCCNC(=O)C1CC2CCC1N2
     RDKit          3D

 15 16  0  0  0  0  0  0  0  0999 V2000
   11.1325   -2.0684   22.6024 C   0  0  0  0  0  0  0  0  0  0  0  0
    9.9934   -2.4627   22.5864 C   0  0  0  0  0  0  0  0  0  0  0  0
    8.6043   -2.9419   22.5667 C   0  0  0  0  0  0  0  0  0  0  0  0
    8.4808   -4.3353   23.1941 C   0  0  0  0  0  0  0  0  0  0  0  0
    8.9271   -4.3586   24.6669 C   0  0  0  0  0  0  0  0  0  0  0  0
    7.8404   -3.9479   25.5447 N   0  0  0  0  0  0  0  0  0  0  0  0
    7.4837   -2.5880   25.8220 C   0  0  0  0  0  0  0  0  0  0  0  0
    6.5445   -2.3707   26.6332 O   0  0  0  0  0  0  0  0  0  0  0  0
    8.2635   -1.4311   25.2256 C   0  0  1  0  0  0  0  0  0  0  0  0
    7.4686   -0.1076   25.1256 C   0  0  0  0  0  0  0  0  0  0  0  0
    8.3401    0.8342   25.9795 C   0  0  2  0  0  0  0  0  0  0  0  0
    9.6204    1.1626   25.1865 C   0  0  0  0  0  0  0  0  0  0  0  0
   10.4067   -0.1499   25.3207 C   0  0  0  0  0  0  0  0  0  0  0  0
    9.4298   -1.0050   26.1509 C   0  0  1  0  0  0  0  0  0  0  0  0
    8.8220   -0.0301   27.0443 N   0  0  0  0  0  0  0  0  0  0  0  0
  1  2  3  0
  2  3  1  0
  3  4  1  0
  4  5  1  0
  5  6  1  0
  6  7  1  0
  7  8  2  0
  9  7  1  1
  9 10  1  0
 11 10  1  6
 11 12  1  0
 12 13  1  0
 14 13  1  6
 14 15  1  0
 14  9  1  0
 15 11  1  0
M  END
>  <Hit>  (372) 
Mpro-x0991_0

>  <Receptor>  (372) 
Mpro-x0874_0

>  <SCORE>  (372) 
-4.9201800000000002

>  <SCORE.norm>  (372) 
-0.32801200000000003

>  <SCORE.heavy>  (372) 
15

>  <OrigSmiles>  (372) 
C#CCCCNC(=O)C1CC2CCC1N2

>  <SuCOS_Score>  (372) 
0.38761803594522254

>  <Max_SuCOS_Score>  (372) 
0.38761803594522254

>  <Cum_SuCOS_Score>  (372) 
3.2051461435651221

>  <TransFSScore_50nM>  (372) 
0.0085760000000000003

>  <TransFSScore_1uM>  (372) 
0.042923999999999997

>  <TransFSScore_10nM>  (372) 
0.013390000000000001

>  <TransFSScore_200nM>  (372) 
0.02427

>  <TransFSScore>  (372) 
0.022290000000000001

>  <FeatureSteinScore>  (372) 
0.38857734730833904

$$$$
C#CCCCNC(=O)[C@@H]1C[C@@H]2CC[C@H]1N2
     RDKit          3D

 15 16  0  0  0  0  0  0  0  0999 V2000
    9.7964   -2.5285   22.6882 C   0  0  0  0  0  0  0  0  0  0  0  0
    9.0531   -3.4489   22.9196 C   0  0  0  0  0  0  0  0  0  0  0  0
    8.1478   -4.5716   23.2017 C   0  0  0  0  0  0  0  0  0  0  0  0
    8.7262   -5.5102   24.2663 C   0  0  0  0  0  0  0  0  0  0  0  0
    8.5651   -4.9526   25.6956 C   0  0  0  0  0  0  0  0  0  0  0  0
    9.1253   -3.6112   25.8347 N   0  0  0  0  0  0  0  0  0  0  0  0
    8.4427   -2.5927   26.5802 C   0  0  0  0  0  0  0  0  0  0  0  0
    7.2519   -2.7825   26.9519 O   0  0  0  0  0  0  0  0  0  0  0  0
    9.0903   -1.2447   26.8058 C   0  0  2  0  0  0  0  0  0  0  0  0
    8.1715   -0.1745   27.4239 C   0  0  0  0  0  0  0  0  0  0  0  0
    8.3795    1.0073   26.4537 C   0  0  2  0  0  0  0  0  0  0  0  0
    7.5708    0.7375   25.1801 C   0  0  0  0  0  0  0  0  0  0  0  0
    8.4196   -0.3515   24.5156 C   0  0  0  0  0  0  0  0  0  0  0  0
    9.5709   -0.5076   25.5303 C   0  0  1  0  0  0  0  0  0  0  0  0
    9.7476    0.8604   25.9853 N   0  0  0  0  0  0  0  0  0  0  0  0
  1  2  3  0
  2  3  1  0
  3  4  1  0
  4  5  1  0
  5  6  1  0
  6  7  1  0
  7  8  2  0
  9  7  1  6
  9 10  1  0
 11 10  1  1
 11 12  1  0
 12 13  1  0
 14 13  1  6
 14 15  1  0
 14  9  1  0
 15 11  1  0
M  END
>  <Hit>  (373) 
Mpro-x0991_0

>  <Receptor>  (373) 
Mpro-x1249_0

>  <SCORE>  (373) 
-4.2202299999999999

>  <SCORE.norm>  (373) 
-0.28134799999999999

>  <SCORE.heavy>  (373) 
15

>  <OrigSmiles>  (373) 
C#CCCCNC(=O)[C@@H]1C[C@@H]2CC[C@H]1N2

>  <SuCOS_Score>  (373) 
0.5261877343669531

>  <Max_SuCOS_Score>  (373) 
0.5261877343669531

>  <Cum_SuCOS_Score>  (373) 
2.9461235892283257

>  <TransFSScore_50nM>  (373) 
0.010560999999999999

>  <TransFSScore_1uM>  (373) 
0.113695

>  <TransFSScore_10nM>  (373) 
0.011998

>  <TransFSScore_200nM>  (373) 
0.061339999999999999

>  <TransFSScore>  (373) 
0.049398500000000005

>  <FeatureSteinScore>  (373) 
0.39885447306984545

$$$$
C#CCCCNCc1cc(Cl)cc(Br)c1
     RDKit          3D

 15 15  0  0  0  0  0  0  0  0999 V2000
    7.4146    3.7221   22.1792 C   0  0  0  0  0  0  0  0  0  0  0  0
    7.9061    4.8225   22.1487 C   0  0  0  0  0  0  0  0  0  0  0  0
    8.5042    6.1637   22.1110 C   0  0  0  0  0  0  0  0  0  0  0  0
    9.0883    6.5568   23.4736 C   0  0  0  0  0  0  0  0  0  0  0  0
   10.1293    5.5356   23.9757 C   0  0  0  0  0  0  0  0  0  0  0  0
   11.2247    5.3317   23.0103 N   0  0  0  0  0  0  0  0  0  0  0  0
   12.3822    4.6512   23.6144 C   0  0  0  0  0  0  0  0  0  0  0  0
   12.1327    3.1670   23.7012 C   0  0  0  0  0  0  0  0  0  0  0  0
   11.0246    2.6785   24.4113 C   0  0  0  0  0  0  0  0  0  0  0  0
   10.7757    1.3016   24.4611 C   0  0  0  0  0  0  0  0  0  0  0  0
    9.3949    0.6937   25.3559 Cl  0  0  0  0  0  0  0  0  0  0  0  0
   11.6215    0.4089   23.7898 C   0  0  0  0  0  0  0  0  0  0  0  0
   12.7174    0.8938   23.0655 C   0  0  0  0  0  0  0  0  0  0  0  0
   13.8617   -0.3088   22.1035 Br  0  0  0  0  0  0  0  0  0  0  0  0
   12.9716    2.2683   23.0227 C   0  0  0  0  0  0  0  0  0  0  0  0
  1  2  3  0
  2  3  1  0
  3  4  1  0
  4  5  1  0
  5  6  1  0
  6  7  1  0
  7  8  1  0
  8  9  2  0
  9 10  1  0
 10 11  1  0
 10 12  2  0
 12 13  1  0
 13 14  1  0
 13 15  2  0
 15  8  1  0
M  END
>  <Hit>  (374) 
Mpro-x0946_0

>  <Receptor>  (374) 
Mpro-x0874_0

>  <SCORE>  (374) 
-10.2073

>  <SCORE.norm>  (374) 
-0.68048399999999998

>  <SCORE.heavy>  (374) 
15

>  <OrigSmiles>  (374) 
C#CCCCNCc1cc(Cl)cc(Br)c1

>  <SuCOS_Score>  (374) 
0.6255304976896956

>  <Max_SuCOS_Score>  (374) 
0.6255304976896956

>  <Cum_SuCOS_Score>  (374) 
3.9813523136023345

>  <TransFSScore_50nM>  (374) 
0.000687

>  <TransFSScore_1uM>  (374) 
0.010356000000000001

>  <TransFSScore_10nM>  (374) 
0.00034099999999999999

>  <TransFSScore_200nM>  (374) 
0.0046020000000000002

>  <TransFSScore>  (374) 
0.0039965000000000001

>  <FeatureSteinScore>  (374) 
0.47743148300220162

$$$$
C#CCCCNc1cc(Cl)cc(Br)c1
     RDKit          3D

 14 14  0  0  0  0  0  0  0  0999 V2000
    9.1775    7.0900   23.8871 C   0  0  0  0  0  0  0  0  0  0  0  0
    9.1876    5.9032   23.6748 C   0  0  0  0  0  0  0  0  0  0  0  0
    9.1994    4.4589   23.4169 C   0  0  0  0  0  0  0  0  0  0  0  0
    8.0931    4.0857   22.4230 C   0  0  0  0  0  0  0  0  0  0  0  0
    7.9242    2.5643   22.2714 C   0  0  0  0  0  0  0  0  0  0  0  0
    8.9640    1.9772   21.4113 N   0  0  0  0  0  0  0  0  0  0  0  0
    9.7160    0.9934   22.1512 C   0  0  0  0  0  0  0  0  0  0  0  0
   10.8667    1.3694   22.8661 C   0  0  0  0  0  0  0  0  0  0  0  0
   11.5772    0.4167   23.6059 C   0  0  0  0  0  0  0  0  0  0  0  0
   13.0159    0.8905   24.4904 Cl  0  0  0  0  0  0  0  0  0  0  0  0
   11.1366   -0.9124   23.6489 C   0  0  0  0  0  0  0  0  0  0  0  0
    9.9825   -1.2901   22.9525 C   0  0  0  0  0  0  0  0  0  0  0  0
    9.3392   -3.0958   23.0342 Br  0  0  0  0  0  0  0  0  0  0  0  0
    9.2770   -0.3416   22.2060 C   0  0  0  0  0  0  0  0  0  0  0  0
  1  2  3  0
  2  3  1  0
  3  4  1  0
  4  5  1  0
  5  6  1  0
  6  7  1  0
  7  8  2  0
  8  9  1  0
  9 10  1  0
  9 11  2  0
 11 12  1  0
 12 13  1  0
 12 14  2  0
 14  7  1  0
M  END
>  <Hit>  (375) 
Mpro-x0946_0

>  <Receptor>  (375) 
Mpro-x0387_0

>  <SCORE>  (375) 
-10.540800000000001

>  <SCORE.norm>  (375) 
-0.752911

>  <SCORE.heavy>  (375) 
14

>  <OrigSmiles>  (375) 
C#CCCCNc1cc(Cl)cc(Br)c1

>  <SuCOS_Score>  (375) 
0.22495678646125716

>  <Max_SuCOS_Score>  (375) 
0.32564597169642739

>  <Cum_SuCOS_Score>  (375) 
3.973776109157336

>  <TransFSScore_50nM>  (375) 
0.0025200000000000001

>  <TransFSScore_1uM>  (375) 
0.016306999999999999

>  <TransFSScore_10nM>  (375) 
0.00074799999999999997

>  <TransFSScore_200nM>  (375) 
0.0022910000000000001

>  <TransFSScore>  (375) 
0.0054665

>  <FeatureSteinScore>  (375) 
0.30550467959473115

$$$$
C#CCCCNc1ncc(C#N)cc1Cl
     RDKit          3D

 15 15  0  0  0  0  0  0  0  0999 V2000
    9.9813   -4.7714   28.1520 C   0  0  0  0  0  0  0  0  0  0  0  0
    9.5312   -3.6900   28.4372 C   0  0  0  0  0  0  0  0  0  0  0  0
    8.9838   -2.3737   28.7840 C   0  0  0  0  0  0  0  0  0  0  0  0
    9.6640   -1.2773   27.9554 C   0  0  0  0  0  0  0  0  0  0  0  0
    9.3670   -1.4138   26.4561 C   0  0  0  0  0  0  0  0  0  0  0  0
   10.0043   -0.3394   25.6767 N   0  0  0  0  0  0  0  0  0  0  0  0
   10.9481   -0.7317   24.6465 C   0  0  0  0  0  0  0  0  0  0  0  0
   11.8855    0.1937   24.2797 N   0  0  0  0  0  0  0  0  0  0  0  0
   12.7414    0.0003   23.2452 C   0  0  0  0  0  0  0  0  0  0  0  0
   12.7020   -1.1804   22.5090 C   0  0  0  0  0  0  0  0  0  0  0  0
   13.6144   -1.3811   21.4043 C   0  0  0  0  0  0  0  0  0  0  0  0
   14.3476   -1.5352   20.5209 N   0  0  0  0  0  0  0  0  0  0  0  0
   11.7582   -2.1494   22.8407 C   0  0  0  0  0  0  0  0  0  0  0  0
   10.8508   -1.9310   23.8810 C   0  0  0  0  0  0  0  0  0  0  0  0
    9.5688   -3.1338   24.0157 Cl  0  0  0  0  0  0  0  0  0  0  0  0
  1  2  3  0
  2  3  1  0
  3  4  1  0
  4  5  1  0
  5  6  1  0
  6  7  1  0
  7  8  2  0
  8  9  1  0
  9 10  2  0
 10 11  1  0
 10 13  1  0
 11 12  3  0
 13 14  2  0
 14 15  1  0
 14  7  1  0
M  END
>  <Hit>  (376) 
Mpro-x0305_0

>  <Receptor>  (376) 
Mpro-x0387_0

>  <SCORE>  (376) 
-11.303800000000001

>  <SCORE.norm>  (376) 
-0.75358499999999995

>  <SCORE.heavy>  (376) 
15

>  <OrigSmiles>  (376) 
C#CCCCNc1ncc(C#N)cc1Cl

>  <SuCOS_Score>  (376) 
0.84626075746063179

>  <Max_SuCOS_Score>  (376) 
0.84626075746063179

>  <Cum_SuCOS_Score>  (376) 
4.5265120738642679

>  <TransFSScore_50nM>  (376) 
0.017721000000000001

>  <TransFSScore_1uM>  (376) 
0.14902499999999999

>  <TransFSScore_10nM>  (376) 
0.0050879999999999996

>  <TransFSScore_200nM>  (376) 
0.65226899999999999

>  <TransFSScore>  (376) 
0.20602575000000001

>  <FeatureSteinScore>  (376) 
0.345478711165281

$$$$
C#CCCCOC(=O)C12CCC(CC1)N2
     RDKit          3D

 15 16  0  0  0  0  0  0  0  0999 V2000
    9.7433   -4.9447   25.4070 C   0  0  0  0  0  0  0  0  0  0  0  0
    8.8694   -5.1383   24.5995 C   0  0  0  0  0  0  0  0  0  0  0  0
    7.8018   -5.3741   23.6134 C   0  0  0  0  0  0  0  0  0  0  0  0
    7.9857   -4.4951   22.3707 C   0  0  0  0  0  0  0  0  0  0  0  0
    7.3461   -3.1105   22.5382 C   0  0  0  0  0  0  0  0  0  0  0  0
    7.2585   -2.4473   21.2790 O   0  0  0  0  0  0  0  0  0  0  0  0
    6.6565   -1.1949   21.1072 C   0  0  0  0  0  0  0  0  0  0  0  0
    6.1494   -0.5861   22.0891 O   0  0  0  0  0  0  0  0  0  0  0  0
    6.5706   -0.5914   19.7335 C   0  0  2  0  0  0  0  0  0  0  0  0
    5.7472   -1.4239   18.7272 C   0  0  0  0  0  0  0  0  0  0  0  0
    5.3869   -0.3572   17.6885 C   0  0  0  0  0  0  0  0  0  0  0  0
    6.0596    0.8925   18.2887 C   0  0  2  0  0  0  0  0  0  0  0  0
    7.5775    0.7803   18.0804 C   0  0  0  0  0  0  0  0  0  0  0  0
    7.9480   -0.2856   19.1205 C   0  0  0  0  0  0  0  0  0  0  0  0
    5.9275    0.7125   19.7240 N   0  0  0  0  0  0  0  0  0  0  0  0
  1  2  3  0
  2  3  1  0
  3  4  1  0
  4  5  1  0
  5  6  1  0
  6  7  1  0
  7  8  2  0
  9  7  1  1
  9 10  1  0
 10 11  1  0
 12 11  1  6
 12 13  1  0
 12 15  1  0
 13 14  1  0
 14  9  1  0
 15  9  1  0
M  END
>  <Hit>  (377) 
Mpro-x0991_0

>  <Receptor>  (377) 
Mpro-x1249_0

>  <SCORE>  (377) 
-4.9031000000000002

>  <SCORE.norm>  (377) 
-0.32687300000000002

>  <SCORE.heavy>  (377) 
15

>  <OrigSmiles>  (377) 
C#CCCCOC(=O)C12CCC(CC1)N2

>  <SuCOS_Score>  (377) 
0.45897290742469488

>  <Max_SuCOS_Score>  (377) 
0.45897290742469488

>  <Cum_SuCOS_Score>  (377) 
2.8393415452490749

>  <TransFSScore_50nM>  (377) 
0.071238999999999997

>  <TransFSScore_1uM>  (377) 
0.43225599999999997

>  <TransFSScore_10nM>  (377) 
0.22029799999999999

>  <TransFSScore_200nM>  (377) 
0.70662800000000003

>  <TransFSScore>  (377) 
0.35760524999999999

>  <FeatureSteinScore>  (377) 
0.33749930769409414

$$$$
C#CCCCOC(=O)C1CC2CCC1N2
     RDKit          3D

 15 16  0  0  0  0  0  0  0  0999 V2000
   10.3701   -4.7924   25.2990 C   0  0  0  0  0  0  0  0  0  0  0  0
    9.3083   -4.8055   24.7281 C   0  0  0  0  0  0  0  0  0  0  0  0
    8.0114   -4.8224   24.0316 C   0  0  0  0  0  0  0  0  0  0  0  0
    7.8961   -3.6595   23.0368 C   0  0  0  0  0  0  0  0  0  0  0  0
    6.5062   -3.5521   22.4026 C   0  0  0  0  0  0  0  0  0  0  0  0
    6.5215   -2.5936   21.3490 O   0  0  0  0  0  0  0  0  0  0  0  0
    6.4616   -1.2168   21.5801 C   0  0  0  0  0  0  0  0  0  0  0  0
    6.5129   -0.7655   22.7580 O   0  0  0  0  0  0  0  0  0  0  0  0
    6.2990   -0.2916   20.4009 C   0  0  1  0  0  0  0  0  0  0  0  0
    7.4695   -0.4193   19.4049 C   0  0  0  0  0  0  0  0  0  0  0  0
    6.7250   -0.7722   18.1023 C   0  0  2  0  0  0  0  0  0  0  0  0
    5.9978    0.4904   17.6004 C   0  0  0  0  0  0  0  0  0  0  0  0
    4.8200    0.5737   18.5825 C   0  0  0  0  0  0  0  0  0  0  0  0
    5.0939   -0.6424   19.4888 C   0  0  1  0  0  0  0  0  0  0  0  0
    5.6386   -1.6223   18.5598 N   0  0  0  0  0  0  0  0  0  0  0  0
  1  2  3  0
  2  3  1  0
  3  4  1  0
  4  5  1  0
  5  6  1  0
  6  7  1  0
  7  8  2  0
  9  7  1  1
  9 10  1  0
 11 10  1  1
 11 12  1  0
 12 13  1  0
 14 13  1  6
 14 15  1  0
 14  9  1  0
 15 11  1  0
M  END
>  <Hit>  (378) 
Mpro-x0991_0

>  <Receptor>  (378) 
Mpro-x0305_0

>  <SCORE>  (378) 
-10.063800000000001

>  <SCORE.norm>  (378) 
-0.67091699999999999

>  <SCORE.heavy>  (378) 
15

>  <OrigSmiles>  (378) 
C#CCCCOC(=O)C1CC2CCC1N2

>  <SuCOS_Score>  (378) 
0.53671539201057072

>  <Max_SuCOS_Score>  (378) 
0.53671539201057072

>  <Cum_SuCOS_Score>  (378) 
3.1388652742155347

>  <TransFSScore_50nM>  (378) 
0.016400000000000001

>  <TransFSScore_1uM>  (378) 
0.233571

>  <TransFSScore_10nM>  (378) 
0.038691000000000003

>  <TransFSScore_200nM>  (378) 
0.48371500000000001

>  <TransFSScore>  (378) 
0.19309425

>  <FeatureSteinScore>  (378) 
0.52813600598891353

$$$$
C#CCCCOC(=O)[C@@H]1C[C@@H]2CC[C@H]1N2
     RDKit          3D

 15 16  0  0  0  0  0  0  0  0999 V2000
   10.4140   -5.2919   25.4094 C   0  0  0  0  0  0  0  0  0  0  0  0
    9.4399   -4.9831   24.7697 C   0  0  0  0  0  0  0  0  0  0  0  0
    8.2505   -4.6062   23.9880 C   0  0  0  0  0  0  0  0  0  0  0  0
    8.5664   -3.4765   23.0008 C   0  0  0  0  0  0  0  0  0  0  0  0
    7.2994   -2.8885   22.3656 C   0  0  0  0  0  0  0  0  0  0  0  0
    7.6271   -1.7741   21.5381 O   0  0  0  0  0  0  0  0  0  0  0  0
    6.6698   -0.9162   20.9855 C   0  0  0  0  0  0  0  0  0  0  0  0
    5.4447   -1.0730   21.2461 O   0  0  0  0  0  0  0  0  0  0  0  0
    7.1278    0.1610   20.0341 C   0  0  2  0  0  0  0  0  0  0  0  0
    6.0958    1.2645   19.7164 C   0  0  0  0  0  0  0  0  0  0  0  0
    6.0832    1.2241   18.1795 C   0  0  2  0  0  0  0  0  0  0  0  0
    5.2857   -0.0126   17.7271 C   0  0  0  0  0  0  0  0  0  0  0  0
    6.2820   -1.1365   18.0199 C   0  0  0  0  0  0  0  0  0  0  0  0
    7.4665   -0.3461   18.6168 C   0  0  1  0  0  0  0  0  0  0  0  0
    7.4623    0.8932   17.8594 N   0  0  0  0  0  0  0  0  0  0  0  0
  1  2  3  0
  2  3  1  0
  3  4  1  0
  4  5  1  0
  5  6  1  0
  6  7  1  0
  7  8  2  0
  9  7  1  1
  9 10  1  0
 11 10  1  1
 11 12  1  0
 12 13  1  0
 14 13  1  6
 14 15  1  0
 14  9  1  0
 15 11  1  0
M  END
>  <Hit>  (379) 
Mpro-x0991_0

>  <Receptor>  (379) 
Mpro-x1249_0

>  <SCORE>  (379) 
-10.0589

>  <SCORE.norm>  (379) 
-0.67059599999999997

>  <SCORE.heavy>  (379) 
15

>  <OrigSmiles>  (379) 
C#CCCCOC(=O)[C@@H]1C[C@@H]2CC[C@H]1N2

>  <SuCOS_Score>  (379) 
0.54110670472956302

>  <Max_SuCOS_Score>  (379) 
0.54110670472956302

>  <Cum_SuCOS_Score>  (379) 
3.245907663360855

>  <TransFSScore_50nM>  (379) 
0.018686999999999999

>  <TransFSScore_1uM>  (379) 
0.18268799999999999

>  <TransFSScore_10nM>  (379) 
0.0059930000000000001

>  <TransFSScore_200nM>  (379) 
0.31059500000000001

>  <TransFSScore>  (379) 
0.12949074999999999

>  <FeatureSteinScore>  (379) 
0.63178253776206428

$$$$
C#CCCCOCC12CCC(CC1)N2
     RDKit          3D

 14 15  0  0  0  0  0  0  0  0999 V2000
   10.1905   -4.1923   24.8278 C   0  0  0  0  0  0  0  0  0  0  0  0
    9.1946   -4.4187   24.1873 C   0  0  0  0  0  0  0  0  0  0  0  0
    7.9786   -4.6966   23.4055 C   0  0  0  0  0  0  0  0  0  0  0  0
    7.9683   -3.9128   22.0856 C   0  0  0  0  0  0  0  0  0  0  0  0
    7.6295   -2.4241   22.2721 C   0  0  0  0  0  0  0  0  0  0  0  0
    7.2139   -1.8282   21.0572 O   0  0  0  0  0  0  0  0  0  0  0  0
    6.9456   -0.4444   21.2137 C   0  0  0  0  0  0  0  0  0  0  0  0
    6.2971    0.1298   19.9411 C   0  0  1  0  0  0  0  0  0  0  0  0
    5.9271    1.6260   20.0645 C   0  0  0  0  0  0  0  0  0  0  0  0
    4.8543    1.7603   18.9751 C   0  0  0  0  0  0  0  0  0  0  0  0
    4.7995    0.3237   18.4220 C   0  0  1  0  0  0  0  0  0  0  0  0
    6.0641    0.0897   17.5721 C   0  0  0  0  0  0  0  0  0  0  0  0
    7.1414   -0.0485   18.6576 C   0  0  0  0  0  0  0  0  0  0  0  0
    5.0284   -0.4994   19.5997 N   0  0  0  0  0  0  0  0  0  0  0  0
  1  2  3  0
  2  3  1  0
  3  4  1  0
  4  5  1  0
  5  6  1  0
  6  7  1  0
  8  7  1  1
  8  9  1  0
  9 10  1  0
 11 10  1  1
 11 12  1  0
 11 14  1  0
 12 13  1  0
 13  8  1  0
 14  8  1  0
M  END
>  <Hit>  (380) 
Mpro-x0991_0

>  <Receptor>  (380) 
Mpro-x0305_0

>  <SCORE>  (380) 
-10.4338

>  <SCORE.norm>  (380) 
-0.74527100000000002

>  <SCORE.heavy>  (380) 
14

>  <OrigSmiles>  (380) 
C#CCCCOCC12CCC(CC1)N2

>  <SuCOS_Score>  (380) 
0.43112006797694535

>  <Max_SuCOS_Score>  (380) 
0.43112006797694535

>  <Cum_SuCOS_Score>  (380) 
3.086922209329372

>  <TransFSScore_50nM>  (380) 
0.030825999999999999

>  <TransFSScore_1uM>  (380) 
0.46601999999999999

>  <TransFSScore_10nM>  (380) 
0.007783

>  <TransFSScore_200nM>  (380) 
0.20543700000000001

>  <TransFSScore>  (380) 
0.17751649999999999

>  <FeatureSteinScore>  (380) 
0.42892082881693944

$$$$
C#CCCCOCC1CC2CCC1N2
     RDKit          3D

 14 15  0  0  0  0  0  0  0  0999 V2000
   10.2305   -5.1386   25.3124 C   0  0  0  0  0  0  0  0  0  0  0  0
    9.2234   -4.7984   24.7436 C   0  0  0  0  0  0  0  0  0  0  0  0
    7.9949   -4.3832   24.0492 C   0  0  0  0  0  0  0  0  0  0  0  0
    8.3115   -3.3243   22.9891 C   0  0  0  0  0  0  0  0  0  0  0  0
    7.0366   -2.8186   22.3158 C   0  0  0  0  0  0  0  0  0  0  0  0
    7.3886   -2.0105   21.2119 O   0  0  0  0  0  0  0  0  0  0  0  0
    6.2436   -1.6859   20.4449 C   0  0  0  0  0  0  0  0  0  0  0  0
    6.6708   -1.1036   19.0830 C   0  0  1  0  0  0  0  0  0  0  0  0
    5.5373   -1.0532   18.0400 C   0  0  0  0  0  0  0  0  0  0  0  0
    5.5975    0.4240   17.6009 C   0  0  1  0  0  0  0  0  0  0  0  0
    4.9672    1.2820   18.7150 C   0  0  0  0  0  0  0  0  0  0  0  0
    6.0831    1.2790   19.7679 C   0  0  0  0  0  0  0  0  0  0  0  0
    7.1367    0.3761   19.0925 C   0  0  2  0  0  0  0  0  0  0  0  0
    7.0141    0.7482   17.6910 N   0  0  0  0  0  0  0  0  0  0  0  0
  1  2  3  0
  2  3  1  0
  3  4  1  0
  4  5  1  0
  5  6  1  0
  6  7  1  0
  8  7  1  1
  8  9  1  0
 10  9  1  1
 10 11  1  0
 11 12  1  0
 13 12  1  1
 13 14  1  0
 13  8  1  0
 14 10  1  0
M  END
>  <Hit>  (381) 
Mpro-x0991_0

>  <Receptor>  (381) 
Mpro-x1249_0

>  <SCORE>  (381) 
-10.647500000000001

>  <SCORE.norm>  (381) 
-0.76053800000000005

>  <SCORE.heavy>  (381) 
14

>  <OrigSmiles>  (381) 
C#CCCCOCC1CC2CCC1N2

>  <SuCOS_Score>  (381) 
0.5425828705451996

>  <Max_SuCOS_Score>  (381) 
0.5425828705451996

>  <Cum_SuCOS_Score>  (381) 
3.1475127088712638

>  <TransFSScore_50nM>  (381) 
0.027657000000000001

>  <TransFSScore_1uM>  (381) 
0.233627

>  <TransFSScore_10nM>  (381) 
0.0056829999999999997

>  <TransFSScore_200nM>  (381) 
0.232323

>  <TransFSScore>  (381) 
0.1248225

>  <FeatureSteinScore>  (381) 
0.71551687406522124

$$$$
C#CCCCS(=O)(=O)N1C2CCC1CC2
     RDKit          3D

 15 16  0  0  0  0  0  0  0  0999 V2000
    9.5748   -6.4476   25.8536 C   0  0  0  0  0  0  0  0  0  0  0  0
    9.0358   -5.9574   24.8930 C   0  0  0  0  0  0  0  0  0  0  0  0
    8.3783   -5.3579   23.7200 C   0  0  0  0  0  0  0  0  0  0  0  0
    8.8266   -3.9067   23.5107 C   0  0  0  0  0  0  0  0  0  0  0  0
    8.3415   -3.3394   22.1708 C   0  0  0  0  0  0  0  0  0  0  0  0
    8.9089   -1.6605   21.9448 S   0  0  0  0  0  0  0  0  0  0  0  0
    8.4628   -0.8358   23.1198 O   0  0  0  0  0  0  0  0  0  0  0  0
    8.2821   -1.1034   20.6982 O   0  0  0  0  0  0  0  0  0  0  0  0
   10.6647   -1.6659   21.8958 N   0  0  0  0  0  0  0  0  0  0  0  0
   11.3378   -0.3968   22.1588 C   0  0  1  0  0  0  0  0  0  0  0  0
   11.1148   -0.1236   23.6625 C   0  0  0  0  0  0  0  0  0  0  0  0
   11.1073   -1.5479   24.2359 C   0  0  0  0  0  0  0  0  0  0  0  0
   11.3398   -2.3944   22.9654 C   0  0  2  0  0  0  0  0  0  0  0  0
   12.8273   -2.2196   22.5797 C   0  0  0  0  0  0  0  0  0  0  0  0
   12.8250   -0.7886   21.9974 C   0  0  0  0  0  0  0  0  0  0  0  0
  1  2  3  0
  2  3  1  0
  3  4  1  0
  4  5  1  0
  5  6  1  0
  6  7  2  0
  6  8  2  0
  6  9  1  0
  9 10  1  0
 10 11  1  1
 11 12  1  0
 13 12  1  1
 13 14  1  0
 13  9  1  0
 14 15  1  0
 15 10  1  0
M  END
>  <Hit>  (382) 
Mpro-x0991_0

>  <Receptor>  (382) 
Mpro-x0387_0

>  <SCORE>  (382) 
-5.8845900000000002

>  <SCORE.norm>  (382) 
-0.39230599999999999

>  <SCORE.heavy>  (382) 
15

>  <OrigSmiles>  (382) 
C#CCCCS(=O)(=O)N1C2CCC1CC2

>  <SuCOS_Score>  (382) 
0.46986063190119731

>  <Max_SuCOS_Score>  (382) 
0.46986063190119731

>  <Cum_SuCOS_Score>  (382) 
4.2683752271324744

>  <TransFSScore_50nM>  (382) 
0.010059

>  <TransFSScore_1uM>  (382) 
0.33214700000000003

>  <TransFSScore_10nM>  (382) 
0.0063309999999999998

>  <TransFSScore_200nM>  (382) 
0.041245999999999998

>  <TransFSScore>  (382) 
0.097445749999999998

>  <FeatureSteinScore>  (382) 
0.45645036363214858

$$$$
C#CCCCS(=O)(=O)N1CC2CC1C2
     RDKit          3D

 14 15  0  0  0  0  0  0  0  0999 V2000
    9.6372   -5.5699   24.9022 C   0  0  0  0  0  0  0  0  0  0  0  0
    8.8417   -5.2837   24.0429 C   0  0  0  0  0  0  0  0  0  0  0  0
    7.8702   -4.9354   22.9926 C   0  0  0  0  0  0  0  0  0  0  0  0
    7.9257   -3.4404   22.6568 C   0  0  0  0  0  0  0  0  0  0  0  0
    6.8612   -3.0413   21.6256 C   0  0  0  0  0  0  0  0  0  0  0  0
    6.8092   -1.2695   21.3901 S   0  0  0  0  0  0  0  0  0  0  0  0
    8.1762   -0.8226   20.9515 O   0  0  0  0  0  0  0  0  0  0  0  0
    6.4754   -0.6019   22.6955 O   0  0  0  0  0  0  0  0  0  0  0  0
    5.5869   -0.8787   20.1959 N   0  0  0  0  0  0  0  0  0  0  0  0
    5.5908   -1.7517   18.9976 C   0  0  0  0  0  0  0  0  0  0  0  0
    5.7424   -0.6955   17.8902 C   0  0  1  0  0  0  0  0  0  0  0  0
    4.7757    0.3644   18.3987 C   0  0  0  0  0  0  0  0  0  0  0  0
    5.8083    0.4139   19.5225 C   0  0  2  0  0  0  0  0  0  0  0  0
    6.8787    0.1243   18.4701 C   0  0  0  0  0  0  0  0  0  0  0  0
  1  2  3  0
  2  3  1  0
  3  4  1  0
  4  5  1  0
  5  6  1  0
  6  7  2  0
  6  8  2  0
  6  9  1  0
  9 10  1  0
 11 10  1  1
 11 12  1  0
 13 12  1  6
 13 14  1  0
 13  9  1  0
 14 11  1  0
M  END
>  <Hit>  (383) 
Mpro-x0991_0

>  <Receptor>  (383) 
Mpro-x0387_0

>  <SCORE>  (383) 
-6.2355299999999998

>  <SCORE.norm>  (383) 
-0.44539499999999999

>  <SCORE.heavy>  (383) 
14

>  <OrigSmiles>  (383) 
C#CCCCS(=O)(=O)N1CC2CC1C2

>  <SuCOS_Score>  (383) 
0.42704496418544236

>  <Max_SuCOS_Score>  (383) 
0.42704496418544236

>  <Cum_SuCOS_Score>  (383) 
2.7800358565776566

>  <TransFSScore_50nM>  (383) 
0.00762

>  <TransFSScore_1uM>  (383) 
0.117061

>  <TransFSScore_10nM>  (383) 
0.0020799999999999998

>  <TransFSScore_200nM>  (383) 
0.123878

>  <TransFSScore>  (383) 
0.06265975

>  <FeatureSteinScore>  (383) 
0.34468972284829008

$$$$
C#CCCN(C)C(=O)C12CCC(CC1)N2
     RDKit          3D

 15 16  0  0  0  0  0  0  0  0999 V2000
    9.0728   -2.3329   22.1168 C   0  0  0  0  0  0  0  0  0  0  0  0
    8.5009   -3.2831   22.5892 C   0  0  0  0  0  0  0  0  0  0  0  0
    7.8027   -4.4439   23.1631 C   0  0  0  0  0  0  0  0  0  0  0  0
    8.7748   -5.3492   23.9563 C   0  0  0  0  0  0  0  0  0  0  0  0
    9.1949   -4.8239   25.2739 N   0  0  0  0  0  0  0  0  0  0  0  0
   10.1426   -5.7074   25.9756 C   0  0  0  0  0  0  0  0  0  0  0  0
    9.7025   -3.4642   25.1943 C   0  0  0  0  0  0  0  0  0  0  0  0
   10.7714   -3.2342   24.6448 O   0  0  0  0  0  0  0  0  0  0  0  0
    8.9329   -2.3172   25.8248 C   0  0  2  0  0  0  0  0  0  0  0  0
    7.4871   -2.1822   25.2989 C   0  0  0  0  0  0  0  0  0  0  0  0
    6.8288   -1.3857   26.4345 C   0  0  0  0  0  0  0  0  0  0  0  0
    8.0095   -1.2085   27.4087 C   0  0  2  0  0  0  0  0  0  0  0  0
    8.9657   -0.1544   26.8178 C   0  0  0  0  0  0  0  0  0  0  0  0
    9.6332   -0.9480   25.6856 C   0  0  0  0  0  0  0  0  0  0  0  0
    8.7511   -2.4514   27.2655 N   0  0  0  0  0  0  0  0  0  0  0  0
  1  2  3  0
  2  3  1  0
  3  4  1  0
  4  5  1  0
  5  6  1  0
  5  7  1  0
  7  8  2  0
  9  7  1  6
  9 10  1  0
 10 11  1  0
 12 11  1  6
 12 13  1  0
 12 15  1  0
 13 14  1  0
 14  9  1  0
 15  9  1  0
M  END
>  <Hit>  (384) 
Mpro-x0991_0

>  <Receptor>  (384) 
Mpro-x0305_0

>  <SCORE>  (384) 
-5.1364999999999998

>  <SCORE.norm>  (384) 
-0.34243299999999999

>  <SCORE.heavy>  (384) 
15

>  <OrigSmiles>  (384) 
C#CCCN(C)C(=O)C12CCC(CC1)N2

>  <SuCOS_Score>  (384) 
0.53514148169589026

>  <Max_SuCOS_Score>  (384) 
0.53514148169589026

>  <Cum_SuCOS_Score>  (384) 
2.6163707248854133

>  <TransFSScore_50nM>  (384) 
0.013317000000000001

>  <TransFSScore_1uM>  (384) 
0.22550300000000001

>  <TransFSScore_10nM>  (384) 
0.017691999999999999

>  <TransFSScore_200nM>  (384) 
0.104172

>  <TransFSScore>  (384) 
0.090171000000000001

>  <FeatureSteinScore>  (384) 
0.3474328002216549

$$$$
C#CCCN(C)C(=O)C1CC2CCC1N2
     RDKit          3D

 15 16  0  0  0  0  0  0  0  0999 V2000
    6.5234   -3.9767   21.3957 C   0  0  0  0  0  0  0  0  0  0  0  0
    7.0812   -3.9429   22.4639 C   0  0  0  0  0  0  0  0  0  0  0  0
    7.7619   -3.8998   23.7680 C   0  0  0  0  0  0  0  0  0  0  0  0
    8.4811   -5.2336   24.0714 C   0  0  0  0  0  0  0  0  0  0  0  0
    9.0053   -5.3019   25.4527 N   0  0  0  0  0  0  0  0  0  0  0  0
    9.6076   -6.6154   25.7485 C   0  0  0  0  0  0  0  0  0  0  0  0
   10.0008   -4.2649   25.6555 C   0  0  0  0  0  0  0  0  0  0  0  0
   11.0133   -4.2473   24.9649 O   0  0  0  0  0  0  0  0  0  0  0  0
    9.8031   -3.1931   26.7133 C   0  0  2  0  0  0  0  0  0  0  0  0
    9.7923   -3.7751   28.1420 C   0  0  0  0  0  0  0  0  0  0  0  0
    8.3939   -3.3592   28.6248 C   0  0  1  0  0  0  0  0  0  0  0  0
    8.3945   -1.8436   28.9003 C   0  0  0  0  0  0  0  0  0  0  0  0
    8.3824   -1.2781   27.4770 C   0  0  0  0  0  0  0  0  0  0  0  0
    8.3926   -2.5702   26.6381 C   0  0  2  0  0  0  0  0  0  0  0  0
    7.5945   -3.4990   27.4206 N   0  0  0  0  0  0  0  0  0  0  0  0
  1  2  3  0
  2  3  1  0
  3  4  1  0
  4  5  1  0
  5  6  1  0
  5  7  1  0
  7  8  2  0
  9  7  1  6
  9 10  1  0
 11 10  1  6
 11 12  1  0
 12 13  1  0
 14 13  1  1
 14 15  1  0
 14  9  1  0
 15 11  1  0
M  END
>  <Hit>  (385) 
Mpro-x0991_0

>  <Receptor>  (385) 
Mpro-x0387_0

>  <SCORE>  (385) 
-7.6897500000000001

>  <SCORE.norm>  (385) 
-0.51265000000000005

>  <SCORE.heavy>  (385) 
15

>  <OrigSmiles>  (385) 
C#CCCN(C)C(=O)C1CC2CCC1N2

>  <SuCOS_Score>  (385) 
0.57093894813821133

>  <Max_SuCOS_Score>  (385) 
0.57093894813821133

>  <Cum_SuCOS_Score>  (385) 
1.8334739767671284

>  <TransFSScore_50nM>  (385) 
0.030242999999999999

>  <TransFSScore_1uM>  (385) 
0.12135

>  <TransFSScore_10nM>  (385) 
0.012562

>  <TransFSScore_200nM>  (385) 
0.094289999999999999

>  <TransFSScore>  (385) 
0.064611249999999995

>  <FeatureSteinScore>  (385) 
0.40235917655756437

$$$$
C#CCCN(C)C(=O)[C@@H]1C[C@@H]2CC[C@H]1N2
     RDKit          3D

 15 16  0  0  0  0  0  0  0  0999 V2000
    8.0677   -2.8502   22.4268 C   0  0  0  0  0  0  0  0  0  0  0  0
    8.1073   -3.9335   22.9542 C   0  0  0  0  0  0  0  0  0  0  0  0
    8.1577   -5.2563   23.5975 C   0  0  0  0  0  0  0  0  0  0  0  0
    9.2698   -5.3214   24.6598 C   0  0  0  0  0  0  0  0  0  0  0  0
    8.9791   -4.4487   25.8006 N   0  0  0  0  0  0  0  0  0  0  0  0
    8.7314   -5.0521   27.1140 C   0  0  0  0  0  0  0  0  0  0  0  0
    9.1609   -3.0225   25.6739 C   0  0  0  0  0  0  0  0  0  0  0  0
   10.0043   -2.5829   24.8445 O   0  0  0  0  0  0  0  0  0  0  0  0
    8.4560   -2.0487   26.5986 C   0  0  2  0  0  0  0  0  0  0  0  0
    7.3714   -1.1785   25.9291 C   0  0  0  0  0  0  0  0  0  0  0  0
    7.7681    0.2360   26.4034 C   0  0  2  0  0  0  0  0  0  0  0  0
    8.9617    0.7026   25.5557 C   0  0  0  0  0  0  0  0  0  0  0  0
   10.0935   -0.1460   26.1447 C   0  0  0  0  0  0  0  0  0  0  0  0
    9.3463   -0.9505   27.2374 C   0  0  1  0  0  0  0  0  0  0  0  0
    8.3601    0.0071   27.7135 N   0  0  0  0  0  0  0  0  0  0  0  0
  1  2  3  0
  2  3  1  0
  3  4  1  0
  4  5  1  0
  5  6  1  0
  5  7  1  0
  7  8  2  0
  9  7  1  6
  9 10  1  0
 11 10  1  6
 11 12  1  0
 12 13  1  0
 14 13  1  6
 14 15  1  0
 14  9  1  0
 15 11  1  0
M  END
>  <Hit>  (386) 
Mpro-x0991_0

>  <Receptor>  (386) 
Mpro-x1249_0

>  <SCORE>  (386) 
-5.4307499999999997

>  <SCORE.norm>  (386) 
-0.36204999999999998

>  <SCORE.heavy>  (386) 
15

>  <OrigSmiles>  (386) 
C#CCCN(C)C(=O)[C@@H]1C[C@@H]2CC[C@H]1N2

>  <SuCOS_Score>  (386) 
0.61214184108857517

>  <Max_SuCOS_Score>  (386) 
0.61214184108857517

>  <Cum_SuCOS_Score>  (386) 
2.6045533388970354

>  <TransFSScore_50nM>  (386) 
0.056801999999999998

>  <TransFSScore_1uM>  (386) 
0.25143700000000002

>  <TransFSScore_10nM>  (386) 
0.013211000000000001

>  <TransFSScore_200nM>  (386) 
0.089028999999999997

>  <TransFSScore>  (386) 
0.10261975000000001

>  <FeatureSteinScore>  (386) 
0.35387425697669644

$$$$
C#CCCN(C)CC12CCC(CC1)N2
     RDKit          3D

 14 15  0  0  0  0  0  0  0  0999 V2000
   10.9525   -2.2115   23.1046 C   0  0  0  0  0  0  0  0  0  0  0  0
    9.9756   -2.9174   23.1270 C   0  0  0  0  0  0  0  0  0  0  0  0
    8.7819   -3.7770   23.1551 C   0  0  0  0  0  0  0  0  0  0  0  0
    8.7737   -4.6819   24.4109 C   0  0  0  0  0  0  0  0  0  0  0  0
    8.8535   -3.9512   25.6968 N   0  0  0  0  0  0  0  0  0  0  0  0
    9.0941   -4.8740   26.8270 C   0  0  0  0  0  0  0  0  0  0  0  0
    7.6661   -3.0773   25.9300 C   0  0  0  0  0  0  0  0  0  0  0  0
    7.9735   -1.5600   25.8253 C   0  0  1  0  0  0  0  0  0  0  0  0
    7.8516   -0.9837   24.3961 C   0  0  0  0  0  0  0  0  0  0  0  0
    8.7131    0.2800   24.5115 C   0  0  0  0  0  0  0  0  0  0  0  0
    9.1453    0.2204   25.9835 C   0  0  1  0  0  0  0  0  0  0  0  0
    7.9342    0.5809   26.8647 C   0  0  0  0  0  0  0  0  0  0  0  0
    7.0942   -0.6957   26.7603 C   0  0  0  0  0  0  0  0  0  0  0  0
    9.3326   -1.2041   26.2006 N   0  0  0  0  0  0  0  0  0  0  0  0
  1  2  3  0
  2  3  1  0
  3  4  1  0
  4  5  1  0
  5  6  1  0
  5  7  1  0
  8  7  1  6
  8  9  1  0
  9 10  1  0
 11 10  1  6
 11 12  1  0
 11 14  1  0
 12 13  1  0
 13  8  1  0
 14  8  1  0
M  END
>  <Hit>  (387) 
Mpro-x0991_0

>  <Receptor>  (387) 
Mpro-x0874_0

>  <SCORE>  (387) 
-4.49587

>  <SCORE.norm>  (387) 
-0.32113399999999998

>  <SCORE.heavy>  (387) 
14

>  <OrigSmiles>  (387) 
C#CCCN(C)CC12CCC(CC1)N2

>  <SuCOS_Score>  (387) 
0.41160866051370243

>  <Max_SuCOS_Score>  (387) 
0.41160866051370243

>  <Cum_SuCOS_Score>  (387) 
3.0581801134045961

>  <TransFSScore_50nM>  (387) 
0.010717000000000001

>  <TransFSScore_1uM>  (387) 
0.092558000000000001

>  <TransFSScore_10nM>  (387) 
0.019505999999999999

>  <TransFSScore_200nM>  (387) 
0.023923

>  <TransFSScore>  (387) 
0.036676

>  <FeatureSteinScore>  (387) 
0.33819100983899908

$$$$
C#CCCN(C)CC1CC2CCC1N2
     RDKit          3D

 14 15  0  0  0  0  0  0  0  0999 V2000
   10.9989   -2.0459   22.8152 C   0  0  0  0  0  0  0  0  0  0  0  0
    9.9806   -2.6735   22.9644 C   0  0  0  0  0  0  0  0  0  0  0  0
    8.7381   -3.4419   23.1440 C   0  0  0  0  0  0  0  0  0  0  0  0
    8.9578   -4.6629   24.0671 C   0  0  0  0  0  0  0  0  0  0  0  0
    9.3153   -4.2883   25.4571 N   0  0  0  0  0  0  0  0  0  0  0  0
    9.7598   -5.4419   26.2573 C   0  0  0  0  0  0  0  0  0  0  0  0
    8.2905   -3.4231   26.1195 C   0  0  0  0  0  0  0  0  0  0  0  0
    8.1699   -1.8949   25.7882 C   0  0  1  0  0  0  0  0  0  0  0  0
    7.1207   -1.0185   26.4993 C   0  0  0  0  0  0  0  0  0  0  0  0
    7.9686    0.2086   26.8714 C   0  0  2  0  0  0  0  0  0  0  0  0
    8.3206    0.9966   25.5928 C   0  0  0  0  0  0  0  0  0  0  0  0
    9.4257    0.1214   24.9894 C   0  0  0  0  0  0  0  0  0  0  0  0
    9.4563   -1.0510   25.9902 C   0  0  1  0  0  0  0  0  0  0  0  0
    9.2252   -0.3977   27.2669 N   0  0  0  0  0  0  0  0  0  0  0  0
  1  2  3  0
  2  3  1  0
  3  4  1  0
  4  5  1  0
  5  6  1  0
  5  7  1  0
  8  7  1  1
  8  9  1  0
 10  9  1  6
 10 11  1  0
 11 12  1  0
 13 12  1  6
 13 14  1  0
 13  8  1  0
 14 10  1  0
M  END
>  <Hit>  (388) 
Mpro-x0991_0

>  <Receptor>  (388) 
Mpro-x0874_0

>  <SCORE>  (388) 
-10.1197

>  <SCORE.norm>  (388) 
-0.72283799999999998

>  <SCORE.heavy>  (388) 
14

>  <OrigSmiles>  (388) 
C#CCCN(C)CC1CC2CCC1N2

>  <SuCOS_Score>  (388) 
0.41743181696397036

>  <Max_SuCOS_Score>  (388) 
0.41743181696397036

>  <Cum_SuCOS_Score>  (388) 
3.1734776099925948

>  <TransFSScore_50nM>  (388) 
0.0037269999999999998

>  <TransFSScore_1uM>  (388) 
0.076275999999999997

>  <TransFSScore_10nM>  (388) 
0.025246000000000001

>  <TransFSScore_200nM>  (388) 
0.054370000000000002

>  <TransFSScore>  (388) 
0.039904750000000003

>  <FeatureSteinScore>  (388) 
0.27023153524228855

$$$$
C#CCCN(C)CCC12CCC(CC1)N2
     RDKit          3D

 15 16  0  0  0  0  0  0  0  0999 V2000
    8.4857   -2.6390   21.8159 C   0  0  0  0  0  0  0  0  0  0  0  0
    8.3215   -3.6685   22.4214 C   0  0  0  0  0  0  0  0  0  0  0  0
    8.1222   -4.9249   23.1615 C   0  0  0  0  0  0  0  0  0  0  0  0
    9.0466   -5.0024   24.3984 C   0  0  0  0  0  0  0  0  0  0  0  0
    8.7754   -3.9298   25.3851 N   0  0  0  0  0  0  0  0  0  0  0  0
    9.1209   -4.3859   26.7501 C   0  0  0  0  0  0  0  0  0  0  0  0
    9.5352   -2.7056   25.0252 C   0  0  0  0  0  0  0  0  0  0  0  0
    8.8272   -1.4093   25.4776 C   0  0  0  0  0  0  0  0  0  0  0  0
    9.4826   -0.1340   24.9024 C   0  0  2  0  0  0  0  0  0  0  0  0
    8.6620    1.1623   25.1054 C   0  0  0  0  0  0  0  0  0  0  0  0
    9.7584    2.2322   25.0045 C   0  0  0  0  0  0  0  0  0  0  0  0
   11.0092    1.3668   24.7620 C   0  0  2  0  0  0  0  0  0  0  0  0
   10.9621    0.8473   23.3123 C   0  0  0  0  0  0  0  0  0  0  0  0
    9.8730   -0.2305   23.4089 C   0  0  0  0  0  0  0  0  0  0  0  0
   10.7496    0.1749   25.5534 N   0  0  0  0  0  0  0  0  0  0  0  0
  1  2  3  0
  2  3  1  0
  3  4  1  0
  4  5  1  0
  5  6  1  0
  5  7  1  0
  7  8  1  0
  9  8  1  1
  9 10  1  0
 10 11  1  0
 12 11  1  6
 12 13  1  0
 12 15  1  0
 13 14  1  0
 14  9  1  0
 15  9  1  0
M  END
>  <Hit>  (389) 
Mpro-x0991_0

>  <Receptor>  (389) 
Mpro-x0874_0

>  <SCORE>  (389) 
-4.6989799999999997

>  <SCORE.norm>  (389) 
-0.31326500000000002

>  <SCORE.heavy>  (389) 
15

>  <OrigSmiles>  (389) 
C#CCCN(C)CCC12CCC(CC1)N2

>  <SuCOS_Score>  (389) 
0.4637231898496601

>  <Max_SuCOS_Score>  (389) 
0.4637231898496601

>  <Cum_SuCOS_Score>  (389) 
3.8018065969538579

>  <TransFSScore_50nM>  (389) 
0.020562

>  <TransFSScore_1uM>  (389) 
0.131605

>  <TransFSScore_10nM>  (389) 
0.013802

>  <TransFSScore_200nM>  (389) 
0.026409999999999999

>  <TransFSScore>  (389) 
0.048094749999999999

>  <FeatureSteinScore>  (389) 
0.33136799068257627

$$$$
C#CCCN(C)C[C@@H]1C[C@@H]2CC[C@H]1N2
     RDKit          3D

 14 15  0  0  0  0  0  0  0  0999 V2000
    8.8393   -1.3169   23.0222 C   0  0  0  0  0  0  0  0  0  0  0  0
    9.3896   -2.3005   23.4500 C   0  0  0  0  0  0  0  0  0  0  0  0
   10.0615   -3.5002   23.9743 C   0  0  0  0  0  0  0  0  0  0  0  0
    9.0883   -4.3752   24.7950 C   0  0  0  0  0  0  0  0  0  0  0  0
    8.7093   -3.7644   26.0912 N   0  0  0  0  0  0  0  0  0  0  0  0
    8.1547   -4.7906   26.9968 C   0  0  0  0  0  0  0  0  0  0  0  0
    7.7135   -2.6766   25.8932 C   0  0  0  0  0  0  0  0  0  0  0  0
    7.6222   -1.7396   27.1262 C   0  0  2  0  0  0  0  0  0  0  0  0
    6.6252   -0.5758   26.9562 C   0  0  0  0  0  0  0  0  0  0  0  0
    7.5124    0.6306   27.3019 C   0  0  2  0  0  0  0  0  0  0  0  0
    8.4444    0.9139   26.1089 C   0  0  0  0  0  0  0  0  0  0  0  0
    9.4713   -0.2107   26.2558 C   0  0  0  0  0  0  0  0  0  0  0  0
    8.9165   -0.9702   27.4787 C   0  0  1  0  0  0  0  0  0  0  0  0
    8.3956    0.0909   28.3228 N   0  0  0  0  0  0  0  0  0  0  0  0
  1  2  3  0
  2  3  1  0
  3  4  1  0
  4  5  1  0
  5  6  1  0
  5  7  1  0
  8  7  1  6
  8  9  1  0
 10  9  1  6
 10 11  1  0
 11 12  1  0
 13 12  1  6
 13 14  1  0
 13  8  1  0
 14 10  1  0
M  END
>  <Hit>  (390) 
Mpro-x0991_0

>  <Receptor>  (390) 
Mpro-x1249_0

>  <SCORE>  (390) 
-5.4652599999999998

>  <SCORE.norm>  (390) 
-0.39037500000000003

>  <SCORE.heavy>  (390) 
14

>  <OrigSmiles>  (390) 
C#CCCN(C)C[C@@H]1C[C@@H]2CC[C@H]1N2

>  <SuCOS_Score>  (390) 
0.34269939569511615

>  <Max_SuCOS_Score>  (390) 
0.34269939569511615

>  <Cum_SuCOS_Score>  (390) 
2.5709838001781549

>  <TransFSScore_50nM>  (390) 
0.0046150000000000002

>  <TransFSScore_1uM>  (390) 
0.077521999999999994

>  <TransFSScore_10nM>  (390) 
0.063920000000000005

>  <TransFSScore_200nM>  (390) 
0.023605000000000001

>  <TransFSScore>  (390) 
0.042415499999999995

>  <FeatureSteinScore>  (390) 
0.18600778959714104

$$$$
C#CCCN(C)Cc1ccc(Br)cc1Cl
     RDKit          3D

 15 15  0  0  0  0  0  0  0  0999 V2000
    7.8241    6.1028   21.3797 C   0  0  0  0  0  0  0  0  0  0  0  0
    8.3015    6.0952   22.4865 C   0  0  0  0  0  0  0  0  0  0  0  0
    8.8809    6.0863   23.8344 C   0  0  0  0  0  0  0  0  0  0  0  0
   10.4118    6.2183   23.7614 C   0  0  0  0  0  0  0  0  0  0  0  0
   11.0578    4.9800   23.2566 N   0  0  0  0  0  0  0  0  0  0  0  0
   12.4535    5.2510   22.8624 C   0  0  0  0  0  0  0  0  0  0  0  0
   10.9579    3.8281   24.1963 C   0  0  0  0  0  0  0  0  0  0  0  0
   11.3855    2.4867   23.6119 C   0  0  0  0  0  0  0  0  0  0  0  0
   12.7577    2.2087   23.4691 C   0  0  0  0  0  0  0  0  0  0  0  0
   13.1913    0.9946   22.9335 C   0  0  0  0  0  0  0  0  0  0  0  0
   12.2640    0.0423   22.5105 C   0  0  0  0  0  0  0  0  0  0  0  0
   12.8808   -1.5982   21.7306 Br  0  0  0  0  0  0  0  0  0  0  0  0
   10.8959    0.3044   22.6283 C   0  0  0  0  0  0  0  0  0  0  0  0
   10.4497    1.5205   23.1657 C   0  0  0  0  0  0  0  0  0  0  0  0
    8.7123    1.8001   23.2027 Cl  0  0  0  0  0  0  0  0  0  0  0  0
  1  2  3  0
  2  3  1  0
  3  4  1  0
  4  5  1  0
  5  6  1  0
  5  7  1  0
  7  8  1  0
  8  9  2  0
  9 10  1  0
 10 11  2  0
 11 12  1  0
 11 13  1  0
 13 14  2  0
 14 15  1  0
 14  8  1  0
M  END
>  <Hit>  (391) 
Mpro-x0946_0

>  <Receptor>  (391) 
Mpro-x1249_0

>  <SCORE>  (391) 
-10.154199999999999

>  <SCORE.norm>  (391) 
-0.67694399999999999

>  <SCORE.heavy>  (391) 
15

>  <OrigSmiles>  (391) 
C#CCCN(C)Cc1ccc(Br)cc1Cl

>  <SuCOS_Score>  (391) 
0.49399987459902595

>  <Max_SuCOS_Score>  (391) 
0.49399987459902595

>  <Cum_SuCOS_Score>  (391) 
3.994103557963216

>  <TransFSScore_50nM>  (391) 
0.0028500000000000001

>  <TransFSScore_1uM>  (391) 
0.0091039999999999992

>  <TransFSScore_10nM>  (391) 
0.0034120000000000001

>  <TransFSScore_200nM>  (391) 
0.02257

>  <TransFSScore>  (391) 
0.0094839999999999994

>  <FeatureSteinScore>  (391) 
0.29890251842187798

$$$$
C#CCCN(C)c1cc(C)c(Br)cn1
     RDKit          3D

 14 14  0  0  0  0  0  0  0  0999 V2000
   12.8241    0.6891   24.2851 C   0  0  0  0  0  0  0  0  0  0  0  0
   12.3157    0.0564   23.3936 C   0  0  0  0  0  0  0  0  0  0  0  0
   11.6969   -0.7140   22.3087 C   0  0  0  0  0  0  0  0  0  0  0  0
   10.1691   -0.5413   22.3324 C   0  0  0  0  0  0  0  0  0  0  0  0
    9.4882   -1.4268   21.3571 N   0  0  0  0  0  0  0  0  0  0  0  0
    8.8001   -2.5576   22.0089 C   0  0  0  0  0  0  0  0  0  0  0  0
    8.5509   -0.6677   20.5510 C   0  0  0  0  0  0  0  0  0  0  0  0
    7.5806    0.1675   21.1378 C   0  0  0  0  0  0  0  0  0  0  0  0
    6.6932    0.8882   20.3265 C   0  0  0  0  0  0  0  0  0  0  0  0
    5.6590    1.7854   20.9514 C   0  0  0  0  0  0  0  0  0  0  0  0
    6.7908    0.7607   18.9301 C   0  0  0  0  0  0  0  0  0  0  0  0
    5.6236    1.7072   17.7382 Br  0  0  0  0  0  0  0  0  0  0  0  0
    7.7649   -0.0791   18.3868 C   0  0  0  0  0  0  0  0  0  0  0  0
    8.6102   -0.7635   19.1957 N   0  0  0  0  0  0  0  0  0  0  0  0
  1  2  3  0
  2  3  1  0
  3  4  1  0
  4  5  1  0
  5  6  1  0
  5  7  1  0
  7  8  2  0
  8  9  1  0
  9 10  1  0
  9 11  2  0
 11 12  1  0
 11 13  1  0
 13 14  2  0
 14  7  1  0
M  END
>  <Hit>  (392) 
Mpro-x0107_0

>  <Receptor>  (392) 
Mpro-x0387_0

>  <SCORE>  (392) 
-14.1296

>  <SCORE.norm>  (392) 
-1.00925

>  <SCORE.heavy>  (392) 
14

>  <OrigSmiles>  (392) 
C#CCCN(C)c1cc(C)c(Br)cn1

>  <SuCOS_Score>  (392) 
0.43358633713574174

>  <Max_SuCOS_Score>  (392) 
0.43358633713574174

>  <Cum_SuCOS_Score>  (392) 
4.8081633181063079

>  <TransFSScore_50nM>  (392) 
0.0050090000000000004

>  <TransFSScore_1uM>  (392) 
0.078673000000000007

>  <TransFSScore_10nM>  (392) 
0.00070299999999999996

>  <TransFSScore_200nM>  (392) 
0.036767000000000001

>  <TransFSScore>  (392) 
0.030288000000000002

>  <FeatureSteinScore>  (392) 
0.38010415317129415

$$$$
C#CCCN(C)c1nccc(C)c1C#N
     RDKit          3D

 15 15  0  0  0  0  0  0  0  0999 V2000
    7.7622   -3.5092   28.6342 C   0  0  0  0  0  0  0  0  0  0  0  0
    8.7534   -2.8228   28.6365 C   0  0  0  0  0  0  0  0  0  0  0  0
    9.9599   -1.9818   28.6389 C   0  0  0  0  0  0  0  0  0  0  0  0
    9.9288   -0.8898   27.5566 C   0  0  0  0  0  0  0  0  0  0  0  0
    9.7950   -1.3625   26.1477 N   0  0  0  0  0  0  0  0  0  0  0  0
    8.5118   -0.9856   25.4952 C   0  0  0  0  0  0  0  0  0  0  0  0
   10.9258   -1.0166   25.2782 C   0  0  0  0  0  0  0  0  0  0  0  0
   11.7061    0.0399   25.6472 N   0  0  0  0  0  0  0  0  0  0  0  0
   12.6822    0.5598   24.8756 C   0  0  0  0  0  0  0  0  0  0  0  0
   12.9446    0.0140   23.6311 C   0  0  0  0  0  0  0  0  0  0  0  0
   12.1908   -1.0699   23.1769 C   0  0  0  0  0  0  0  0  0  0  0  0
   12.4725   -1.6212   21.8002 C   0  0  0  0  0  0  0  0  0  0  0  0
   11.1361   -1.5693   23.9745 C   0  0  0  0  0  0  0  0  0  0  0  0
   10.2348   -2.5228   23.3631 C   0  0  0  0  0  0  0  0  0  0  0  0
    9.5240   -3.2834   22.8562 N   0  0  0  0  0  0  0  0  0  0  0  0
  1  2  3  0
  2  3  1  0
  3  4  1  0
  4  5  1  0
  5  6  1  0
  5  7  1  0
  7  8  2  0
  8  9  1  0
  9 10  2  0
 10 11  1  0
 11 12  1  0
 11 13  2  0
 13 14  1  0
 13  7  1  0
 14 15  3  0
M  END
>  <Hit>  (393) 
Mpro-x0305_0

>  <Receptor>  (393) 
Mpro-x0387_0

>  <SCORE>  (393) 
-11.5808

>  <SCORE.norm>  (393) 
-0.77205299999999999

>  <SCORE.heavy>  (393) 
15

>  <OrigSmiles>  (393) 
C#CCCN(C)c1nccc(C)c1C#N

>  <SuCOS_Score>  (393) 
0.50988776096173771

>  <Max_SuCOS_Score>  (393) 
0.50988776096173771

>  <Cum_SuCOS_Score>  (393) 
4.0120579219826169

>  <TransFSScore_50nM>  (393) 
0.0013860000000000001

>  <TransFSScore_1uM>  (393) 
0.097192000000000001

>  <TransFSScore_10nM>  (393) 
0.00049100000000000001

>  <TransFSScore_200nM>  (393) 
0.0069899999999999997

>  <TransFSScore>  (393) 
0.02651475

>  <FeatureSteinScore>  (393) 
0.19701672616622637

$$$$
C#CCCN(CC)CC12CCC(CC1)N2
     RDKit          3D

 15 16  0  0  0  0  0  0  0  0999 V2000
    7.2777   -2.8513   21.6874 C   0  0  0  0  0  0  0  0  0  0  0  0
    7.6435   -3.8477   22.2589 C   0  0  0  0  0  0  0  0  0  0  0  0
    8.0902   -5.0652   22.9549 C   0  0  0  0  0  0  0  0  0  0  0  0
    7.6469   -5.0684   24.4315 C   0  0  0  0  0  0  0  0  0  0  0  0
    8.2502   -3.9529   25.1870 N   0  0  0  0  0  0  0  0  0  0  0  0
    8.6851   -4.3459   26.5482 C   0  0  0  0  0  0  0  0  0  0  0  0
    9.9020   -5.2847   26.5751 C   0  0  0  0  0  0  0  0  0  0  0  0
    7.4339   -2.7125   25.1636 C   0  0  0  0  0  0  0  0  0  0  0  0
    8.3224   -1.4389   25.0544 C   0  0  1  0  0  0  0  0  0  0  0  0
    7.5633   -0.1993   24.5182 C   0  0  0  0  0  0  0  0  0  0  0  0
    8.7210    0.6788   24.0248 C   0  0  0  0  0  0  0  0  0  0  0  0
    9.9372   -0.2037   24.3591 C   0  0  1  0  0  0  0  0  0  0  0  0
   10.1574   -0.1562   25.8825 C   0  0  0  0  0  0  0  0  0  0  0  0
    9.0006   -1.0310   26.3853 C   0  0  0  0  0  0  0  0  0  0  0  0
    9.4478   -1.5548   24.1313 N   0  0  0  0  0  0  0  0  0  0  0  0
  1  2  3  0
  2  3  1  0
  3  4  1  0
  4  5  1  0
  5  6  1  0
  5  8  1  0
  6  7  1  0
  9  8  1  1
  9 10  1  0
 10 11  1  0
 12 11  1  1
 12 13  1  0
 12 15  1  0
 13 14  1  0
 14  9  1  0
 15  9  1  0
M  END
>  <Hit>  (394) 
Mpro-x0991_0

>  <Receptor>  (394) 
Mpro-x0874_0

>  <SCORE>  (394) 
-4.5697700000000001

>  <SCORE.norm>  (394) 
-0.30465199999999998

>  <SCORE.heavy>  (394) 
15

>  <OrigSmiles>  (394) 
C#CCCN(CC)CC12CCC(CC1)N2

>  <SuCOS_Score>  (394) 
0.45418941085888404

>  <Max_SuCOS_Score>  (394) 
0.45418941085888404

>  <Cum_SuCOS_Score>  (394) 
3.07173773488796

>  <TransFSScore_50nM>  (394) 
0.028365000000000001

>  <TransFSScore_1uM>  (394) 
0.088775000000000007

>  <TransFSScore_10nM>  (394) 
0.0080669999999999995

>  <TransFSScore_200nM>  (394) 
0.039759000000000003

>  <TransFSScore>  (394) 
0.0412415

>  <FeatureSteinScore>  (394) 
0.36583898724276187

$$$$
C#CCCN(CC)CC1CC2CCC1N2
     RDKit          3D

 15 16  0  0  0  0  0  0  0  0999 V2000
    7.6377   -2.2777   22.4652 C   0  0  0  0  0  0  0  0  0  0  0  0
    7.6282   -3.3857   22.9399 C   0  0  0  0  0  0  0  0  0  0  0  0
    7.6132   -4.7379   23.5201 C   0  0  0  0  0  0  0  0  0  0  0  0
    7.2685   -4.6959   25.0262 C   0  0  0  0  0  0  0  0  0  0  0  0
    8.3377   -4.1388   25.8787 N   0  0  0  0  0  0  0  0  0  0  0  0
    9.2305   -5.1326   26.5185 C   0  0  0  0  0  0  0  0  0  0  0  0
   10.3413   -5.6584   25.6049 C   0  0  0  0  0  0  0  0  0  0  0  0
    7.9601   -2.9865   26.7253 C   0  0  0  0  0  0  0  0  0  0  0  0
    8.1446   -1.6662   25.9519 C   0  0  2  0  0  0  0  0  0  0  0  0
    9.5408   -1.5672   25.3001 C   0  0  0  0  0  0  0  0  0  0  0  0
   10.1003   -0.3042   25.9716 C   0  0  1  0  0  0  0  0  0  0  0  0
    9.3916    0.9275   25.3785 C   0  0  0  0  0  0  0  0  0  0  0  0
    8.0163    0.8336   26.0448 C   0  0  0  0  0  0  0  0  0  0  0  0
    8.1776   -0.4413   26.8939 C   0  0  2  0  0  0  0  0  0  0  0  0
    9.5668   -0.4059   27.3180 N   0  0  0  0  0  0  0  0  0  0  0  0
  1  2  3  0
  2  3  1  0
  3  4  1  0
  4  5  1  0
  5  6  1  0
  5  8  1  0
  6  7  1  0
  9  8  1  1
  9 10  1  0
 11 10  1  6
 11 12  1  0
 12 13  1  0
 14 13  1  6
 14 15  1  0
 14  9  1  0
 15 11  1  0
M  END
>  <Hit>  (395) 
Mpro-x0991_0

>  <Receptor>  (395) 
Mpro-x1249_0

>  <SCORE>  (395) 
-6.5819000000000001

>  <SCORE.norm>  (395) 
-0.43879299999999999

>  <SCORE.heavy>  (395) 
15

>  <OrigSmiles>  (395) 
C#CCCN(CC)CC1CC2CCC1N2

>  <SuCOS_Score>  (395) 
0.60559464393448204

>  <Max_SuCOS_Score>  (395) 
0.60559464393448204

>  <Cum_SuCOS_Score>  (395) 
2.727434477069409

>  <TransFSScore_50nM>  (395) 
0.0093950000000000006

>  <TransFSScore_1uM>  (395) 
0.10004300000000001

>  <TransFSScore_10nM>  (395) 
0.0064580000000000002

>  <TransFSScore_200nM>  (395) 
0.035043999999999999

>  <TransFSScore>  (395) 
0.037735000000000005

>  <FeatureSteinScore>  (395) 
0.32731088246613044

$$$$
C#CCCN(CC)C[C@@H]1C[C@@H]2CC[C@H]1N2
     RDKit          3D

 15 16  0  0  0  0  0  0  0  0999 V2000
    8.9570   -1.4239   23.2345 C   0  0  0  0  0  0  0  0  0  0  0  0
    8.8686   -2.5650   23.6130 C   0  0  0  0  0  0  0  0  0  0  0  0
    8.7624   -3.9572   24.0770 C   0  0  0  0  0  0  0  0  0  0  0  0
    8.1725   -4.0321   25.5021 C   0  0  0  0  0  0  0  0  0  0  0  0
    9.0947   -3.5240   26.5471 N   0  0  0  0  0  0  0  0  0  0  0  0
    9.9038   -4.6051   27.1738 C   0  0  0  0  0  0  0  0  0  0  0  0
   10.8825   -5.3068   26.2182 C   0  0  0  0  0  0  0  0  0  0  0  0
    8.3613   -2.7306   27.5730 C   0  0  0  0  0  0  0  0  0  0  0  0
    9.3192   -2.0676   28.5979 C   0  0  2  0  0  0  0  0  0  0  0  0
    8.6138   -1.1268   29.5962 C   0  0  0  0  0  0  0  0  0  0  0  0
    9.4404    0.1644   29.4314 C   0  0  2  0  0  0  0  0  0  0  0  0
    9.0286    0.8320   28.1052 C   0  0  0  0  0  0  0  0  0  0  0  0
    9.7407   -0.0620   27.0818 C   0  0  0  0  0  0  0  0  0  0  0  0
   10.3913   -1.1176   28.0007 C   0  0  1  0  0  0  0  0  0  0  0  0
   10.7834   -0.3253   29.1566 N   0  0  0  0  0  0  0  0  0  0  0  0
  1  2  3  0
  2  3  1  0
  3  4  1  0
  4  5  1  0
  5  6  1  0
  5  8  1  0
  6  7  1  0
  9  8  1  6
  9 10  1  0
 11 10  1  6
 11 12  1  0
 12 13  1  0
 14 13  1  6
 14 15  1  0
 14  9  1  0
 15 11  1  0
M  END
>  <Hit>  (396) 
Mpro-x0991_0

>  <Receptor>  (396) 
Mpro-x0387_0

>  <SCORE>  (396) 
-5.8555599999999997

>  <SCORE.norm>  (396) 
-0.39036999999999999

>  <SCORE.heavy>  (396) 
15

>  <OrigSmiles>  (396) 
C#CCCN(CC)C[C@@H]1C[C@@H]2CC[C@H]1N2

>  <SuCOS_Score>  (396) 
0.41660629525095616

>  <Max_SuCOS_Score>  (396) 
0.41660629525095616

>  <Cum_SuCOS_Score>  (396) 
2.2100392434671492

>  <TransFSScore_50nM>  (396) 
0.035671000000000001

>  <TransFSScore_1uM>  (396) 
0.065687999999999996

>  <TransFSScore_10nM>  (396) 
0.0044359999999999998

>  <TransFSScore_200nM>  (396) 
0.027300999999999999

>  <TransFSScore>  (396) 
0.033273999999999998

>  <FeatureSteinScore>  (396) 
0.28302403885039368

$$$$
C#CCCN1C2CCC1CC2
     RDKit          3D

 11 12  0  0  0  0  0  0  0  0999 V2000
   10.5096   -5.3548   25.6202 C   0  0  0  0  0  0  0  0  0  0  0  0
    9.6128   -5.1233   24.8487 C   0  0  0  0  0  0  0  0  0  0  0  0
    8.5181   -4.8412   23.9072 C   0  0  0  0  0  0  0  0  0  0  0  0
    8.4331   -3.3361   23.6173 C   0  0  0  0  0  0  0  0  0  0  0  0
    9.6525   -2.8515   22.9203 N   0  0  0  0  0  0  0  0  0  0  0  0
    9.6093   -1.4489   22.5041 C   0  0  2  0  0  0  0  0  0  0  0  0
   10.9846   -1.2623   21.8250 C   0  0  0  0  0  0  0  0  0  0  0  0
   11.8807   -2.1567   22.7043 C   0  0  0  0  0  0  0  0  0  0  0  0
   10.8604   -2.6898   23.7346 C   0  0  1  0  0  0  0  0  0  0  0  0
   10.5449   -1.5217   24.6972 C   0  0  0  0  0  0  0  0  0  0  0  0
    9.6427   -0.6411   23.8218 C   0  0  0  0  0  0  0  0  0  0  0  0
  1  2  3  0
  2  3  1  0
  3  4  1  0
  4  5  1  0
  5  6  1  0
  6  7  1  6
  7  8  1  0
  9  8  1  6
  9 10  1  0
  9  5  1  0
 10 11  1  0
 11  6  1  0
M  END
>  <Hit>  (397) 
Mpro-x0991_0

>  <Receptor>  (397) 
Mpro-x0387_0

>  <SCORE>  (397) 
-4.5562300000000002

>  <SCORE.norm>  (397) 
-0.41420299999999999

>  <SCORE.heavy>  (397) 
11

>  <OrigSmiles>  (397) 
C#CCCN1C2CCC1CC2

>  <SuCOS_Score>  (397) 
0.4905212280468253

>  <Max_SuCOS_Score>  (397) 
0.4905212280468253

>  <Cum_SuCOS_Score>  (397) 
3.3554355398027331

>  <TransFSScore_50nM>  (397) 
0.0045669999999999999

>  <TransFSScore_1uM>  (397) 
0.074915999999999996

>  <TransFSScore_10nM>  (397) 
0.011527000000000001

>  <TransFSScore_200nM>  (397) 
0.16370000000000001

>  <TransFSScore>  (397) 
0.063677499999999998

>  <FeatureSteinScore>  (397) 
0.52000191312850419

$$$$
C#CCCN1C2CCC1CNC2
     RDKit          3D

 12 13  0  0  0  0  0  0  0  0999 V2000
   10.6672   -5.3132   25.6600 C   0  0  0  0  0  0  0  0  0  0  0  0
    9.7493   -5.0876   24.9116 C   0  0  0  0  0  0  0  0  0  0  0  0
    8.6277   -4.8095   24.0011 C   0  0  0  0  0  0  0  0  0  0  0  0
    8.5301   -3.3102   23.6733 C   0  0  0  0  0  0  0  0  0  0  0  0
    9.7038   -2.8165   22.8938 N   0  0  0  0  0  0  0  0  0  0  0  0
   10.9773   -2.7584   23.6278 C   0  0  1  0  0  0  0  0  0  0  0  0
   11.9411   -2.0721   22.6414 C   0  0  0  0  0  0  0  0  0  0  0  0
   11.0257   -1.2023   21.7796 C   0  0  0  0  0  0  0  0  0  0  0  0
    9.6289   -1.4388   22.3792 C   0  0  2  0  0  0  0  0  0  0  0  0
    9.3826   -0.4104   23.5288 C   0  0  0  0  0  0  0  0  0  0  0  0
    9.7186   -0.9381   24.8671 N   0  0  0  0  0  0  0  0  0  0  0  0
   10.8423   -1.8947   24.9187 C   0  0  0  0  0  0  0  0  0  0  0  0
  1  2  3  0
  2  3  1  0
  3  4  1  0
  4  5  1  0
  5  6  1  0
  6  7  1  6
  7  8  1  0
  9  8  1  1
  9 10  1  0
  9  5  1  0
 10 11  1  0
 11 12  1  0
 12  6  1  0
M  END
>  <Hit>  (398) 
Mpro-x0991_0

>  <Receptor>  (398) 
Mpro-x0387_0

>  <SCORE>  (398) 
-5.8016399999999999

>  <SCORE.norm>  (398) 
-0.48347000000000001

>  <SCORE.heavy>  (398) 
12

>  <OrigSmiles>  (398) 
C#CCCN1C2CCC1CNC2

>  <SuCOS_Score>  (398) 
0.46623332596017891

>  <Max_SuCOS_Score>  (398) 
0.46623332596017891

>  <Cum_SuCOS_Score>  (398) 
3.5026955231288985

>  <TransFSScore_50nM>  (398) 
0.046288999999999997

>  <TransFSScore_1uM>  (398) 
0.10332

>  <TransFSScore_10nM>  (398) 
0.006051

>  <TransFSScore_200nM>  (398) 
0.077490000000000003

>  <TransFSScore>  (398) 
0.058287499999999999

>  <FeatureSteinScore>  (398) 
0.45074751809250629

$$$$
C#CCCN1[C@H]2CC[C@@H]1CNC2
     RDKit          3D

 12 13  0  0  0  0  0  0  0  0999 V2000
   10.5238   -5.4960   25.6113 C   0  0  0  0  0  0  0  0  0  0  0  0
    9.5326   -5.2271   24.9798 C   0  0  0  0  0  0  0  0  0  0  0  0
    8.3229   -4.8988   24.2095 C   0  0  0  0  0  0  0  0  0  0  0  0
    8.6199   -3.8007   23.1850 C   0  0  0  0  0  0  0  0  0  0  0  0
    8.9337   -2.5270   23.8677 N   0  0  0  0  0  0  0  0  0  0  0  0
    8.5125   -1.2790   23.2270 C   0  0  1  0  0  0  0  0  0  0  0  0
    9.0931   -0.2070   24.1595 C   0  0  0  0  0  0  0  0  0  0  0  0
   10.3402   -0.8756   24.7576 C   0  0  0  0  0  0  0  0  0  0  0  0
   10.3505   -2.2709   24.1195 C   0  0  2  0  0  0  0  0  0  0  0  0
   11.1447   -2.2454   22.7826 C   0  0  0  0  0  0  0  0  0  0  0  0
   10.6150   -1.2398   21.8328 N   0  0  0  0  0  0  0  0  0  0  0  0
    9.1372   -1.1396   21.8098 C   0  0  0  0  0  0  0  0  0  0  0  0
  1  2  3  0
  2  3  1  0
  3  4  1  0
  4  5  1  0
  5  6  1  0
  6  7  1  1
  7  8  1  0
  9  8  1  6
  9 10  1  0
  9  5  1  0
 10 11  1  0
 11 12  1  0
 12  6  1  0
M  END
>  <Hit>  (399) 
Mpro-x0991_0

>  <Receptor>  (399) 
Mpro-x1249_0

>  <SCORE>  (399) 
-6.6464800000000004

>  <SCORE.norm>  (399) 
-0.55387399999999998

>  <SCORE.heavy>  (399) 
12

>  <OrigSmiles>  (399) 
C#CCCN1[C@H]2CC[C@@H]1CNC2

>  <SuCOS_Score>  (399) 
0.53073822200450849

>  <Max_SuCOS_Score>  (399) 
0.53073822200450849

>  <Cum_SuCOS_Score>  (399) 
3.570708783065772

>  <TransFSScore_50nM>  (399) 
0.115035

>  <TransFSScore_1uM>  (399) 
0.075053999999999996

>  <TransFSScore_10nM>  (399) 
0.017215000000000001

>  <TransFSScore_200nM>  (399) 
0.058212

>  <TransFSScore>  (399) 
0.066379000000000007

>  <FeatureSteinScore>  (399) 
0.63383071621437281

$$$$
C#CCCNC(=O)C12CCC(CC1)N2
     RDKit          3D

 14 15  0  0  0  0  0  0  0  0999 V2000
    8.5186   -2.9566   21.8265 C   0  0  0  0  0  0  0  0  0  0  0  0
    8.3206   -3.9148   22.5308 C   0  0  0  0  0  0  0  0  0  0  0  0
    8.0793   -5.0851   23.3899 C   0  0  0  0  0  0  0  0  0  0  0  0
    8.8097   -4.9548   24.7399 C   0  0  0  0  0  0  0  0  0  0  0  0
    8.6105   -3.6456   25.3573 N   0  0  0  0  0  0  0  0  0  0  0  0
    9.4714   -2.5382   25.0519 C   0  0  0  0  0  0  0  0  0  0  0  0
   10.4702   -2.7122   24.3006 O   0  0  0  0  0  0  0  0  0  0  0  0
    9.2182   -1.1752   25.6607 C   0  0  1  0  0  0  0  0  0  0  0  0
    9.0368   -1.2099   27.1939 C   0  0  0  0  0  0  0  0  0  0  0  0
    8.2660    0.0967   27.4327 C   0  0  0  0  0  0  0  0  0  0  0  0
    8.1456    0.6495   25.9988 C   0  0  1  0  0  0  0  0  0  0  0  0
    9.5248    1.1887   25.5770 C   0  0  0  0  0  0  0  0  0  0  0  0
   10.2967   -0.1142   25.3289 C   0  0  0  0  0  0  0  0  0  0  0  0
    7.9891   -0.5492   25.1889 N   0  0  0  0  0  0  0  0  0  0  0  0
  1  2  3  0
  2  3  1  0
  3  4  1  0
  4  5  1  0
  5  6  1  0
  6  7  2  0
  8  6  1  6
  8  9  1  0
  9 10  1  0
 11 10  1  1
 11 12  1  0
 11 14  1  0
 12 13  1  0
 13  8  1  0
 14  8  1  0
M  END
>  <Hit>  (400) 
Mpro-x0991_0

>  <Receptor>  (400) 
Mpro-x1249_0

>  <SCORE>  (400) 
-2.8015300000000001

>  <SCORE.norm>  (400) 
-0.20010900000000001

>  <SCORE.heavy>  (400) 
14

>  <OrigSmiles>  (400) 
C#CCCNC(=O)C12CCC(CC1)N2

>  <SuCOS_Score>  (400) 
0.43466900171976652

>  <Max_SuCOS_Score>  (400) 
0.43466900171976652

>  <Cum_SuCOS_Score>  (400) 
2.6985957219835748

>  <TransFSScore_50nM>  (400) 
0.0080149999999999996

>  <TransFSScore_1uM>  (400) 
0.090439000000000005

>  <TransFSScore_10nM>  (400) 
0.021793

>  <TransFSScore_200nM>  (400) 
0.015559

>  <TransFSScore>  (400) 
0.033951499999999996

>  <FeatureSteinScore>  (400) 
0.41287802002309321

$$$$
C#CCCNC(=O)C1CC2CCC1N2
     RDKit          3D

 14 15  0  0  0  0  0  0  0  0999 V2000
    8.7471   -2.3411   21.6212 C   0  0  0  0  0  0  0  0  0  0  0  0
    8.3952   -3.3399   22.1972 C   0  0  0  0  0  0  0  0  0  0  0  0
    7.9650   -4.5596   22.8995 C   0  0  0  0  0  0  0  0  0  0  0  0
    8.7534   -4.7663   24.2067 C   0  0  0  0  0  0  0  0  0  0  0  0
    8.8463   -3.5435   25.0008 N   0  0  0  0  0  0  0  0  0  0  0  0
    9.8365   -2.5443   24.7176 C   0  0  0  0  0  0  0  0  0  0  0  0
   10.7670   -2.7996   23.9046 O   0  0  0  0  0  0  0  0  0  0  0  0
    9.8523   -1.2417   25.4861 C   0  0  2  0  0  0  0  0  0  0  0  0
    8.5780   -0.3816   25.3442 C   0  0  0  0  0  0  0  0  0  0  0  0
    9.1731    0.9933   24.9718 C   0  0  2  0  0  0  0  0  0  0  0  0
    9.5747    0.9498   23.4881 C   0  0  0  0  0  0  0  0  0  0  0  0
   10.8352    0.0795   23.5458 C   0  0  0  0  0  0  0  0  0  0  0  0
   10.9380   -0.2204   25.0607 C   0  0  1  0  0  0  0  0  0  0  0  0
   10.4547    1.0131   25.6617 N   0  0  0  0  0  0  0  0  0  0  0  0
  1  2  3  0
  2  3  1  0
  3  4  1  0
  4  5  1  0
  5  6  1  0
  6  7  2  0
  8  6  1  6
  8  9  1  0
 10  9  1  1
 10 11  1  0
 11 12  1  0
 13 12  1  6
 13 14  1  0
 13  8  1  0
 14 10  1  0
M  END
>  <Hit>  (401) 
Mpro-x0991_0

>  <Receptor>  (401) 
Mpro-x1249_0

>  <SCORE>  (401) 
-5.3545600000000002

>  <SCORE.norm>  (401) 
-0.38246799999999997

>  <SCORE.heavy>  (401) 
14

>  <OrigSmiles>  (401) 
C#CCCNC(=O)C1CC2CCC1N2

>  <SuCOS_Score>  (401) 
0.33468122007904078

>  <Max_SuCOS_Score>  (401) 
0.33468122007904078

>  <Cum_SuCOS_Score>  (401) 
3.542003897796369

>  <TransFSScore_50nM>  (401) 
0.016334000000000001

>  <TransFSScore_1uM>  (401) 
0.052604999999999999

>  <TransFSScore_10nM>  (401) 
0.0043119999999999999

>  <TransFSScore_200nM>  (401) 
0.01932

>  <TransFSScore>  (401) 
0.02314275

>  <FeatureSteinScore>  (401) 
0.38382682729569545

$$$$
C#CCCNC(=O)CC12CCC(CC1)N2
     RDKit          3D

 15 16  0  0  0  0  0  0  0  0999 V2000
    9.5231   -3.0168   23.3776 C   0  0  0  0  0  0  0  0  0  0  0  0
    9.1632   -4.0747   23.8297 C   0  0  0  0  0  0  0  0  0  0  0  0
    8.7228   -5.3662   24.3811 C   0  0  0  0  0  0  0  0  0  0  0  0
    9.7687   -5.9539   25.3471 C   0  0  0  0  0  0  0  0  0  0  0  0
   10.1037   -5.0335   26.4308 N   0  0  0  0  0  0  0  0  0  0  0  0
    9.1404   -4.6735   27.4299 C   0  0  0  0  0  0  0  0  0  0  0  0
    7.9812   -5.1695   27.4022 O   0  0  0  0  0  0  0  0  0  0  0  0
    9.4968   -3.6879   28.5069 C   0  0  0  0  0  0  0  0  0  0  0  0
    9.3315   -2.2170   28.0627 C   0  0  2  0  0  0  0  0  0  0  0  0
    7.8721   -1.7591   27.8256 C   0  0  0  0  0  0  0  0  0  0  0  0
    8.0184   -0.2339   27.9302 C   0  0  0  0  0  0  0  0  0  0  0  0
    9.5277   -0.0867   28.2071 C   0  0  2  0  0  0  0  0  0  0  0  0
   10.2821   -0.3668   26.8950 C   0  0  0  0  0  0  0  0  0  0  0  0
   10.1409   -1.8906   26.7847 C   0  0  0  0  0  0  0  0  0  0  0  0
    9.8357   -1.2481   29.0282 N   0  0  0  0  0  0  0  0  0  0  0  0
  1  2  3  0
  2  3  1  0
  3  4  1  0
  4  5  1  0
  5  6  1  0
  6  7  2  0
  6  8  1  0
  9  8  1  1
  9 10  1  0
 10 11  1  0
 12 11  1  6
 12 13  1  0
 12 15  1  0
 13 14  1  0
 14  9  1  0
 15  9  1  0
M  END
>  <Hit>  (402) 
Mpro-x0991_0

>  <Receptor>  (402) 
Mpro-x0387_0

>  <SCORE>  (402) 
-4.5485699999999998

>  <SCORE.norm>  (402) 
-0.30323800000000001

>  <SCORE.heavy>  (402) 
15

>  <OrigSmiles>  (402) 
C#CCCNC(=O)CC12CCC(CC1)N2

>  <SuCOS_Score>  (402) 
0.523545710487759

>  <Max_SuCOS_Score>  (402) 
0.523545710487759

>  <Cum_SuCOS_Score>  (402) 
2.1383385715208876

>  <TransFSScore_50nM>  (402) 
0.0059420000000000002

>  <TransFSScore_1uM>  (402) 
0.21093600000000001

>  <TransFSScore_10nM>  (402) 
0.0013829999999999999

>  <TransFSScore_200nM>  (402) 
0.033071000000000003

>  <TransFSScore>  (402) 
0.062833

>  <FeatureSteinScore>  (402) 
0.25488182849530816

$$$$
C#CCCNC(=O)Cn1ccc2ccccc21
     RDKit          3D

 17 18  0  0  0  0  0  0  0  0999 V2000
    5.7401   -0.4856   17.4289 C   0  0  0  0  0  0  0  0  0  0  0  0
    6.2513    0.1300   18.3307 C   0  0  0  0  0  0  0  0  0  0  0  0
    6.8754    0.8797   19.4285 C   0  0  0  0  0  0  0  0  0  0  0  0
    8.2194    0.2620   19.8258 C   0  0  0  0  0  0  0  0  0  0  0  0
    8.8698    1.0284   20.8900 N   0  0  0  0  0  0  0  0  0  0  0  0
    8.6650    0.7091   22.2719 C   0  0  0  0  0  0  0  0  0  0  0  0
    7.9002   -0.2388   22.5985 O   0  0  0  0  0  0  0  0  0  0  0  0
    9.3992    1.4617   23.3394 C   0  0  0  0  0  0  0  0  0  0  0  0
   10.8386    1.4117   23.0838 N   0  0  0  0  0  0  0  0  0  0  0  0
   11.6886    2.4630   23.1731 C   0  0  0  0  0  0  0  0  0  0  0  0
   12.9953    2.0476   22.9443 C   0  0  0  0  0  0  0  0  0  0  0  0
   12.9163    0.6853   22.7178 C   0  0  0  0  0  0  0  0  0  0  0  0
   13.9159   -0.2497   22.4403 C   0  0  0  0  0  0  0  0  0  0  0  0
   13.5365   -1.5912   22.2511 C   0  0  0  0  0  0  0  0  0  0  0  0
   12.1807   -1.9673   22.3434 C   0  0  0  0  0  0  0  0  0  0  0  0
   11.1930   -1.0051   22.6265 C   0  0  0  0  0  0  0  0  0  0  0  0
   11.5969    0.3258   22.8110 C   0  0  0  0  0  0  0  0  0  0  0  0
  1  2  3  0
  2  3  1  0
  3  4  1  0
  4  5  1  0
  5  6  1  0
  6  7  2  0
  6  8  1  0
  8  9  1  0
  9 10  1  0
 10 11  2  0
 11 12  1  0
 12 13  2  0
 13 14  1  0
 14 15  2  0
 15 16  1  0
 16 17  2  0
 17  9  1  0
 17 12  1  0
M  END
>  <Hit>  (403) 
Mpro-x0104_0

>  <Receptor>  (403) 
Mpro-x0305_0

>  <SCORE>  (403) 
-10.000299999999999

>  <SCORE.norm>  (403) 
-0.58825099999999997

>  <SCORE.heavy>  (403) 
17

>  <OrigSmiles>  (403) 
C#CCCNC(=O)Cn1ccc2ccccc21

>  <SuCOS_Score>  (403) 
0.36860663416130485

>  <Max_SuCOS_Score>  (403) 
0.4618622597511981

>  <Cum_SuCOS_Score>  (403) 
5.4799778097133736

>  <TransFSScore_50nM>  (403) 
0.013616

>  <TransFSScore_1uM>  (403) 
0.18953900000000001

>  <TransFSScore_10nM>  (403) 
0.0063140000000000002

>  <TransFSScore_200nM>  (403) 
0.071055999999999994

>  <TransFSScore>  (403) 
0.070131250000000006

>  <FeatureSteinScore>  (403) 
0.27876384169613755

$$$$
C#CCCNC(=O)[C@@H]1C[C@@H]2CC[C@H]1N2
     RDKit          3D

 14 15  0  0  0  0  0  0  0  0999 V2000
    9.2175   -2.3668   22.2567 C   0  0  0  0  0  0  0  0  0  0  0  0
    8.5987   -3.3531   22.5692 C   0  0  0  0  0  0  0  0  0  0  0  0
    7.8435   -4.5581   22.9504 C   0  0  0  0  0  0  0  0  0  0  0  0
    8.3475   -5.1404   24.2804 C   0  0  0  0  0  0  0  0  0  0  0  0
    8.0110   -4.2658   25.3939 N   0  0  0  0  0  0  0  0  0  0  0  0
    8.8484   -3.1843   25.8134 C   0  0  0  0  0  0  0  0  0  0  0  0
    9.8976   -2.9122   25.1683 O   0  0  0  0  0  0  0  0  0  0  0  0
    8.4157   -2.3152   26.9688 C   0  0  2  0  0  0  0  0  0  0  0  0
    7.1157   -1.5140   26.7397 C   0  0  0  0  0  0  0  0  0  0  0  0
    7.5738   -0.0887   27.0926 C   0  0  2  0  0  0  0  0  0  0  0  0
    8.4020    0.4627   25.9194 C   0  0  0  0  0  0  0  0  0  0  0  0
    9.7101   -0.3120   26.0876 C   0  0  0  0  0  0  0  0  0  0  0  0
    9.3969   -1.1786   27.3287 C   0  0  1  0  0  0  0  0  0  0  0  0
    8.5545   -0.3185   28.1407 N   0  0  0  0  0  0  0  0  0  0  0  0
  1  2  3  0
  2  3  1  0
  3  4  1  0
  4  5  1  0
  5  6  1  0
  6  7  2  0
  8  6  1  6
  8  9  1  0
 10  9  1  6
 10 11  1  0
 11 12  1  0
 13 12  1  6
 13 14  1  0
 13  8  1  0
 14 10  1  0
M  END
>  <Hit>  (404) 
Mpro-x0991_0

>  <Receptor>  (404) 
Mpro-x1249_0

>  <SCORE>  (404) 
-4.5480400000000003

>  <SCORE.norm>  (404) 
-0.32485999999999998

>  <SCORE.heavy>  (404) 
14

>  <OrigSmiles>  (404) 
C#CCCNC(=O)[C@@H]1C[C@@H]2CC[C@H]1N2

>  <SuCOS_Score>  (404) 
0.41527214308621518

>  <Max_SuCOS_Score>  (404) 
0.41527214308621518

>  <Cum_SuCOS_Score>  (404) 
2.3091894817154648

>  <TransFSScore_50nM>  (404) 
0.0016299999999999999

>  <TransFSScore_1uM>  (404) 
0.051846999999999997

>  <TransFSScore_10nM>  (404) 
0.0038969999999999999

>  <TransFSScore_200nM>  (404) 
0.015540999999999999

>  <TransFSScore>  (404) 
0.018228749999999998

>  <FeatureSteinScore>  (404) 
0.2838292861313067

$$$$
C#CCCNC(=O)c1ccc(Br)cc1Cl
     RDKit          3D

 15 15  0  0  0  0  0  0  0  0999 V2000
    8.4551    4.0362   25.7964 C   0  0  0  0  0  0  0  0  0  0  0  0
    8.4660    4.9467   25.0062 C   0  0  0  0  0  0  0  0  0  0  0  0
    8.4763    6.0547   24.0422 C   0  0  0  0  0  0  0  0  0  0  0  0
    9.8827    6.2839   23.4811 C   0  0  0  0  0  0  0  0  0  0  0  0
   10.4406    5.0557   22.9128 N   0  0  0  0  0  0  0  0  0  0  0  0
   11.2709    4.1828   23.6906 C   0  0  0  0  0  0  0  0  0  0  0  0
   11.6939    4.5575   24.8185 O   0  0  0  0  0  0  0  0  0  0  0  0
   11.6815    2.8639   23.1646 C   0  0  0  0  0  0  0  0  0  0  0  0
   12.9710    2.3882   23.4550 C   0  0  0  0  0  0  0  0  0  0  0  0
   13.4019    1.1538   22.9633 C   0  0  0  0  0  0  0  0  0  0  0  0
   12.5501    0.3735   22.1792 C   0  0  0  0  0  0  0  0  0  0  0  0
   13.1735   -1.3029   21.4852 Br  0  0  0  0  0  0  0  0  0  0  0  0
   11.2551    0.8227   21.8998 C   0  0  0  0  0  0  0  0  0  0  0  0
   10.8129    2.0601   22.3904 C   0  0  0  0  0  0  0  0  0  0  0  0
    9.1390    2.5160   22.0835 Cl  0  0  0  0  0  0  0  0  0  0  0  0
  1  2  3  0
  2  3  1  0
  3  4  1  0
  4  5  1  0
  5  6  1  0
  6  7  2  0
  6  8  1  0
  8  9  2  0
  9 10  1  0
 10 11  2  0
 11 12  1  0
 11 13  1  0
 13 14  2  0
 14 15  1  0
 14  8  1  0
M  END
>  <Hit>  (405) 
Mpro-x0946_0

>  <Receptor>  (405) 
Mpro-x0874_0

>  <SCORE>  (405) 
-10.623900000000001

>  <SCORE.norm>  (405) 
-0.70825700000000003

>  <SCORE.heavy>  (405) 
15

>  <OrigSmiles>  (405) 
C#CCCNC(=O)c1ccc(Br)cc1Cl

>  <SuCOS_Score>  (405) 
0.51576186180475525

>  <Max_SuCOS_Score>  (405) 
0.51576186180475525

>  <Cum_SuCOS_Score>  (405) 
3.3946208640082092

>  <TransFSScore_50nM>  (405) 
0.018027999999999999

>  <TransFSScore_1uM>  (405) 
0.018471000000000001

>  <TransFSScore_10nM>  (405) 
0.0047720000000000002

>  <TransFSScore_200nM>  (405) 
0.024551

>  <TransFSScore>  (405) 
0.016455500000000001

>  <FeatureSteinScore>  (405) 
0.27287704011662339

$$$$
C#CCCNCc1c(Cl)cccc1Br
     RDKit          3D

 14 14  0  0  0  0  0  0  0  0999 V2000
    6.6021    1.1315   20.5394 C   0  0  0  0  0  0  0  0  0  0  0  0
    7.5176    0.3518   20.4549 C   0  0  0  0  0  0  0  0  0  0  0  0
    8.6325   -0.5984   20.3505 C   0  0  0  0  0  0  0  0  0  0  0  0
    8.9935   -1.1921   21.7191 C   0  0  0  0  0  0  0  0  0  0  0  0
   10.0748   -2.1856   21.6111 N   0  0  0  0  0  0  0  0  0  0  0  0
   10.8380   -2.2608   22.8659 C   0  0  0  0  0  0  0  0  0  0  0  0
   11.4423   -0.9109   23.2022 C   0  0  0  0  0  0  0  0  0  0  0  0
   10.8631   -0.0966   24.2055 C   0  0  0  0  0  0  0  0  0  0  0  0
    9.4312   -0.5934   25.1048 Cl  0  0  0  0  0  0  0  0  0  0  0  0
   11.4337    1.1402   24.5264 C   0  0  0  0  0  0  0  0  0  0  0  0
   12.5913    1.5679   23.8781 C   0  0  0  0  0  0  0  0  0  0  0  0
   13.1852    0.7670   22.9020 C   0  0  0  0  0  0  0  0  0  0  0  0
   12.6206   -0.4666   22.5562 C   0  0  0  0  0  0  0  0  0  0  0  0
   13.4858   -1.4964   21.1758 Br  0  0  0  0  0  0  0  0  0  0  0  0
  1  2  3  0
  2  3  1  0
  3  4  1  0
  4  5  1  0
  5  6  1  0
  6  7  1  0
  7  8  2  0
  8  9  1  0
  8 10  1  0
 10 11  2  0
 11 12  1  0
 12 13  2  0
 13 14  1  0
 13  7  1  0
M  END
>  <Hit>  (406) 
Mpro-x0946_0

>  <Receptor>  (406) 
Mpro-x1249_0

>  <SCORE>  (406) 
-10.840999999999999

>  <SCORE.norm>  (406) 
-0.77435699999999996

>  <SCORE.heavy>  (406) 
14

>  <OrigSmiles>  (406) 
C#CCCNCc1c(Cl)cccc1Br

>  <SuCOS_Score>  (406) 
0.2088930063483678

>  <Max_SuCOS_Score>  (406) 
0.49994008033437776

>  <Cum_SuCOS_Score>  (406) 
5.705023931082839

>  <TransFSScore_50nM>  (406) 
0.0017930000000000001

>  <TransFSScore_1uM>  (406) 
0.0078340000000000007

>  <TransFSScore_10nM>  (406) 
0.00088900000000000003

>  <TransFSScore_200nM>  (406) 
0.014132

>  <TransFSScore>  (406) 
0.0061620000000000008

>  <FeatureSteinScore>  (406) 
0.5393402305329893

$$$$
C#CCCNCc1ccc(Cl)cc1Br
     RDKit          3D

 14 14  0  0  0  0  0  0  0  0999 V2000
    7.0057    1.6249   21.0026 C   0  0  0  0  0  0  0  0  0  0  0  0
    7.9921    0.9326   20.9714 C   0  0  0  0  0  0  0  0  0  0  0  0
    9.1925    0.0899   20.9326 C   0  0  0  0  0  0  0  0  0  0  0  0
    8.8976   -1.2892   21.5438 C   0  0  0  0  0  0  0  0  0  0  0  0
   10.1175   -2.1035   21.6951 N   0  0  0  0  0  0  0  0  0  0  0  0
   10.7632   -1.9017   23.0031 C   0  0  0  0  0  0  0  0  0  0  0  0
   11.1594   -0.4537   23.1795 C   0  0  0  0  0  0  0  0  0  0  0  0
   10.3419    0.3904   23.9525 C   0  0  0  0  0  0  0  0  0  0  0  0
   10.6906    1.7280   24.1570 C   0  0  0  0  0  0  0  0  0  0  0  0
   11.8712    2.2319   23.6061 C   0  0  0  0  0  0  0  0  0  0  0  0
   12.3145    3.9087   23.8690 Cl  0  0  0  0  0  0  0  0  0  0  0  0
   12.7003    1.4007   22.8461 C   0  0  0  0  0  0  0  0  0  0  0  0
   12.3525    0.0618   22.6254 C   0  0  0  0  0  0  0  0  0  0  0  0
   13.5235   -1.0149   21.5391 Br  0  0  0  0  0  0  0  0  0  0  0  0
  1  2  3  0
  2  3  1  0
  3  4  1  0
  4  5  1  0
  5  6  1  0
  6  7  1  0
  7  8  2  0
  8  9  1  0
  9 10  2  0
 10 11  1  0
 10 12  1  0
 12 13  2  0
 13 14  1  0
 13  7  1  0
M  END
>  <Hit>  (407) 
Mpro-x0946_0

>  <Receptor>  (407) 
Mpro-x1249_0

>  <SCORE>  (407) 
-11.1

>  <SCORE.norm>  (407) 
-0.79285600000000001

>  <SCORE.heavy>  (407) 
14

>  <OrigSmiles>  (407) 
C#CCCNCc1ccc(Cl)cc1Br

>  <SuCOS_Score>  (407) 
0.33962955458312255

>  <Max_SuCOS_Score>  (407) 
0.41205043029967925

>  <Cum_SuCOS_Score>  (407) 
5.1464012489953914

>  <TransFSScore_50nM>  (407) 
0.0013780000000000001

>  <TransFSScore_1uM>  (407) 
0.015061

>  <TransFSScore_10nM>  (407) 
0.00020599999999999999

>  <TransFSScore_200nM>  (407) 
0.010827

>  <TransFSScore>  (407) 
0.006868

>  <FeatureSteinScore>  (407) 
0.40066390424640308

$$$$
C#CCCNc1cc(C)c(Br)cn1
     RDKit          3D

 13 13  0  0  0  0  0  0  0  0999 V2000
   13.6158   -1.3110   21.0589 C   0  0  0  0  0  0  0  0  0  0  0  0
   12.6095   -1.4236   21.7132 C   0  0  0  0  0  0  0  0  0  0  0  0
   11.3845   -1.5608   22.5092 C   0  0  0  0  0  0  0  0  0  0  0  0
   10.4004   -0.4373   22.1761 C   0  0  0  0  0  0  0  0  0  0  0  0
    9.8798   -0.5855   20.8149 N   0  0  0  0  0  0  0  0  0  0  0  0
    8.6016   -0.0719   20.3933 C   0  0  0  0  0  0  0  0  0  0  0  0
    7.6574    0.4017   21.3219 C   0  0  0  0  0  0  0  0  0  0  0  0
    6.4236    0.8957   20.8768 C   0  0  0  0  0  0  0  0  0  0  0  0
    5.4135    1.4082   21.8682 C   0  0  0  0  0  0  0  0  0  0  0  0
    6.1525    0.9078   19.4986 C   0  0  0  0  0  0  0  0  0  0  0  0
    4.4945    1.5661   18.7935 Br  0  0  0  0  0  0  0  0  0  0  0  0
    7.1146    0.4272   18.6090 C   0  0  0  0  0  0  0  0  0  0  0  0
    8.3020   -0.0458   19.0651 N   0  0  0  0  0  0  0  0  0  0  0  0
  1  2  3  0
  2  3  1  0
  3  4  1  0
  4  5  1  0
  5  6  1  0
  6  7  2  0
  7  8  1  0
  8  9  1  0
  8 10  2  0
 10 11  1  0
 10 12  1  0
 12 13  2  0
 13  6  1  0
M  END
>  <Hit>  (408) 
Mpro-x0107_0

>  <Receptor>  (408) 
Mpro-x1249_0

>  <SCORE>  (408) 
-11.764200000000001

>  <SCORE.norm>  (408) 
-0.90493800000000002

>  <SCORE.heavy>  (408) 
13

>  <OrigSmiles>  (408) 
C#CCCNc1cc(C)c(Br)cn1

>  <SuCOS_Score>  (408) 
0.48717056387500357

>  <Max_SuCOS_Score>  (408) 
0.48717056387500357

>  <Cum_SuCOS_Score>  (408) 
4.5160032098424079

>  <TransFSScore_50nM>  (408) 
0.00059999999999999995

>  <TransFSScore_1uM>  (408) 
0.014212000000000001

>  <TransFSScore_10nM>  (408) 
0.00045199999999999998

>  <TransFSScore_200nM>  (408) 
0.034812999999999997

>  <TransFSScore>  (408) 
0.012519249999999999

>  <FeatureSteinScore>  (408) 
0.38721568963972791

$$$$
C#CCCNc1ccc(Br)cc1Cl
     RDKit          3D

 13 13  0  0  0  0  0  0  0  0999 V2000
   13.5914    5.2610   22.4624 C   0  0  0  0  0  0  0  0  0  0  0  0
   12.4572    5.4933   22.7987 C   0  0  0  0  0  0  0  0  0  0  0  0
   11.0750    5.7763   23.2060 C   0  0  0  0  0  0  0  0  0  0  0  0
   10.2315    4.4950   23.2490 C   0  0  0  0  0  0  0  0  0  0  0  0
   10.6647    3.5970   24.3319 N   0  0  0  0  0  0  0  0  0  0  0  0
   11.2543    2.4004   23.7770 C   0  0  0  0  0  0  0  0  0  0  0  0
   12.6403    2.3507   23.5410 C   0  0  0  0  0  0  0  0  0  0  0  0
   13.2272    1.2156   22.9774 C   0  0  0  0  0  0  0  0  0  0  0  0
   12.4400    0.1163   22.6289 C   0  0  0  0  0  0  0  0  0  0  0  0
   13.2603   -1.4144   21.8141 Br  0  0  0  0  0  0  0  0  0  0  0  0
   11.0596    0.1487   22.8546 C   0  0  0  0  0  0  0  0  0  0  0  0
   10.4616    1.2833   23.4213 C   0  0  0  0  0  0  0  0  0  0  0  0
    8.7164    1.2743   23.6537 Cl  0  0  0  0  0  0  0  0  0  0  0  0
  1  2  3  0
  2  3  1  0
  3  4  1  0
  4  5  1  0
  5  6  1  0
  6  7  2  0
  7  8  1  0
  8  9  2  0
  9 10  1  0
  9 11  1  0
 11 12  2  0
 12 13  1  0
 12  6  1  0
M  END
>  <Hit>  (409) 
Mpro-x0946_0

>  <Receptor>  (409) 
Mpro-x1249_0

>  <SCORE>  (409) 
-10.0746

>  <SCORE.norm>  (409) 
-0.77496600000000004

>  <SCORE.heavy>  (409) 
13

>  <OrigSmiles>  (409) 
C#CCCNc1ccc(Br)cc1Cl

>  <SuCOS_Score>  (409) 
0.46914502936044333

>  <Max_SuCOS_Score>  (409) 
0.46914502936044333

>  <Cum_SuCOS_Score>  (409) 
3.9183960162735341

>  <TransFSScore_50nM>  (409) 
0.0044869999999999997

>  <TransFSScore_1uM>  (409) 
0.016974

>  <TransFSScore_10nM>  (409) 
0.00022699999999999999

>  <TransFSScore_200nM>  (409) 
0.010427000000000001

>  <TransFSScore>  (409) 
0.0080287500000000012

>  <FeatureSteinScore>  (409) 
0.26590770301870786

$$$$
C#CCCNc1ccc(Cl)cc1Br
     RDKit          3D

 13 13  0  0  0  0  0  0  0  0999 V2000
    9.4423   -4.2820   25.6217 C   0  0  0  0  0  0  0  0  0  0  0  0
   10.0257   -3.6906   24.7481 C   0  0  0  0  0  0  0  0  0  0  0  0
   10.7358   -2.9705   23.6855 C   0  0  0  0  0  0  0  0  0  0  0  0
    9.9750   -1.6929   23.3036 C   0  0  0  0  0  0  0  0  0  0  0  0
   10.5516   -1.0337   22.1183 N   0  0  0  0  0  0  0  0  0  0  0  0
   11.1127    0.2609   22.4428 C   0  0  0  0  0  0  0  0  0  0  0  0
   10.2470    1.3536   22.6450 C   0  0  0  0  0  0  0  0  0  0  0  0
   10.7494    2.6153   22.9699 C   0  0  0  0  0  0  0  0  0  0  0  0
   12.1263    2.8026   23.1040 C   0  0  0  0  0  0  0  0  0  0  0  0
   12.7588    4.3858   23.5171 Cl  0  0  0  0  0  0  0  0  0  0  0  0
   13.0016    1.7303   22.9065 C   0  0  0  0  0  0  0  0  0  0  0  0
   12.5089    0.4621   22.5709 C   0  0  0  0  0  0  0  0  0  0  0  0
   13.7863   -0.9489   22.2748 Br  0  0  0  0  0  0  0  0  0  0  0  0
  1  2  3  0
  2  3  1  0
  3  4  1  0
  4  5  1  0
  5  6  1  0
  6  7  2  0
  7  8  1  0
  8  9  2  0
  9 10  1  0
  9 11  1  0
 11 12  2  0
 12 13  1  0
 12  6  1  0
M  END
>  <Hit>  (410) 
Mpro-x0946_0

>  <Receptor>  (410) 
Mpro-x0305_0

>  <SCORE>  (410) 
-11.3635

>  <SCORE.norm>  (410) 
-0.87411799999999995

>  <SCORE.heavy>  (410) 
13

>  <OrigSmiles>  (410) 
C#CCCNc1ccc(Cl)cc1Br

>  <SuCOS_Score>  (410) 
0.4033656939141077

>  <Max_SuCOS_Score>  (410) 
0.4033656939141077

>  <Cum_SuCOS_Score>  (410) 
4.7223281385764837

>  <TransFSScore_50nM>  (410) 
0.0011410000000000001

>  <TransFSScore_1uM>  (410) 
0.021381000000000001

>  <TransFSScore_10nM>  (410) 
0.00061600000000000001

>  <TransFSScore_200nM>  (410) 
0.0066429999999999996

>  <TransFSScore>  (410) 
0.0074452499999999996

>  <FeatureSteinScore>  (410) 
0.44497231322724112

$$$$
C#CCCNc1ncc(C#N)cc1Cl
     RDKit          3D

 14 14  0  0  0  0  0  0  0  0999 V2000
    9.1801    1.1870   29.2172 C   0  0  0  0  0  0  0  0  0  0  0  0
    9.5957    0.1091   28.8729 C   0  0  0  0  0  0  0  0  0  0  0  0
   10.1018   -1.2032   28.4535 C   0  0  0  0  0  0  0  0  0  0  0  0
    9.7767   -1.4585   26.9798 C   0  0  0  0  0  0  0  0  0  0  0  0
   10.3078   -0.3783   26.1329 N   0  0  0  0  0  0  0  0  0  0  0  0
   11.1386   -0.7611   25.0055 C   0  0  0  0  0  0  0  0  0  0  0  0
   12.0091    0.1799   24.5296 N   0  0  0  0  0  0  0  0  0  0  0  0
   12.7553   -0.0092   23.4125 C   0  0  0  0  0  0  0  0  0  0  0  0
   12.6669   -1.2013   22.6993 C   0  0  0  0  0  0  0  0  0  0  0  0
   13.4621   -1.3977   21.5065 C   0  0  0  0  0  0  0  0  0  0  0  0
   14.1015   -1.5483   20.5525 N   0  0  0  0  0  0  0  0  0  0  0  0
   11.7869   -2.1864   23.1410 C   0  0  0  0  0  0  0  0  0  0  0  0
   10.9895   -1.9734   24.2689 C   0  0  0  0  0  0  0  0  0  0  0  0
    9.7580   -3.2032   24.5524 Cl  0  0  0  0  0  0  0  0  0  0  0  0
  1  2  3  0
  2  3  1  0
  3  4  1  0
  4  5  1  0
  5  6  1  0
  6  7  2  0
  7  8  1  0
  8  9  2  0
  9 10  1  0
  9 12  1  0
 10 11  3  0
 12 13  2  0
 13 14  1  0
 13  6  1  0
M  END
>  <Hit>  (411) 
Mpro-x0305_0

>  <Receptor>  (411) 
Mpro-x0387_0

>  <SCORE>  (411) 
-10.749599999999999

>  <SCORE.norm>  (411) 
-0.76783000000000001

>  <SCORE.heavy>  (411) 
14

>  <OrigSmiles>  (411) 
C#CCCNc1ncc(C#N)cc1Cl

>  <SuCOS_Score>  (411) 
0.81324951227102737

>  <Max_SuCOS_Score>  (411) 
0.81324951227102737

>  <Cum_SuCOS_Score>  (411) 
4.068753904118803

>  <TransFSScore_50nM>  (411) 
0.011708

>  <TransFSScore_1uM>  (411) 
0.11865299999999999

>  <TransFSScore_10nM>  (411) 
0.0067130000000000002

>  <TransFSScore_200nM>  (411) 
0.41719400000000001

>  <TransFSScore>  (411) 
0.138567

>  <FeatureSteinScore>  (411) 
0.33661357415275361

$$$$
C#CCCOC(=O)C12CC(CN1)C2
     RDKit          3D

 13 14  0  0  0  0  0  0  0  0999 V2000
    9.8099   -4.4674   24.7192 C   0  0  0  0  0  0  0  0  0  0  0  0
    9.0375   -4.0331   23.9018 C   0  0  0  0  0  0  0  0  0  0  0  0
    8.0955   -3.5036   22.9038 C   0  0  0  0  0  0  0  0  0  0  0  0
    8.7172   -2.3251   22.1526 C   0  0  0  0  0  0  0  0  0  0  0  0
    7.7905   -1.7908   21.2096 O   0  0  0  0  0  0  0  0  0  0  0  0
    8.1089   -0.7652   20.3125 C   0  0  0  0  0  0  0  0  0  0  0  0
    9.2820   -0.3055   20.2506 O   0  0  0  0  0  0  0  0  0  0  0  0
    7.0513   -0.2352   19.3905 C   0  0  1  0  0  0  0  0  0  0  0  0
    5.9956    0.7059   19.9500 C   0  0  0  0  0  0  0  0  0  0  0  0
    5.2664    0.1933   18.7141 C   0  0  1  0  0  0  0  0  0  0  0  0
    6.1723    0.7763   17.6199 C   0  0  0  0  0  0  0  0  0  0  0  0
    7.5046    0.4352   18.1643 N   0  0  0  0  0  0  0  0  0  0  0  0
    5.9401   -1.1588   18.9098 C   0  0  0  0  0  0  0  0  0  0  0  0
  1  2  3  0
  2  3  1  0
  3  4  1  0
  4  5  1  0
  5  6  1  0
  6  7  2  0
  8  6  1  1
  8  9  1  0
 10  9  1  1
 10 11  1  0
 10 13  1  0
 11 12  1  0
 12  8  1  0
 13  8  1  0
M  END
>  <Hit>  (412) 
Mpro-x0991_0

>  <Receptor>  (412) 
Mpro-x0874_0

>  <SCORE>  (412) 
-10.8513

>  <SCORE.norm>  (412) 
-0.83471700000000004

>  <SCORE.heavy>  (412) 
13

>  <OrigSmiles>  (412) 
C#CCCOC(=O)C12CC(CN1)C2

>  <SuCOS_Score>  (412) 
0.31395695036469512

>  <Max_SuCOS_Score>  (412) 
0.33257918552036203

>  <Cum_SuCOS_Score>  (412) 
3.0673602151652188

>  <TransFSScore_50nM>  (412) 
0.012478

>  <TransFSScore_1uM>  (412) 
0.135159

>  <TransFSScore_10nM>  (412) 
0.030664

>  <TransFSScore_200nM>  (412) 
0.52901799999999999

>  <TransFSScore>  (412) 
0.17682975000000001

>  <FeatureSteinScore>  (412) 
0.45351394208184226

$$$$
C#CCCOC(=O)C12CCC(CC1)N2
     RDKit          3D

 14 15  0  0  0  0  0  0  0  0999 V2000
   10.0087   -4.4658   24.7207 C   0  0  0  0  0  0  0  0  0  0  0  0
    9.1937   -3.9834   23.9747 C   0  0  0  0  0  0  0  0  0  0  0  0
    8.2027   -3.3929   23.0620 C   0  0  0  0  0  0  0  0  0  0  0  0
    8.8382   -2.3409   22.1503 C   0  0  0  0  0  0  0  0  0  0  0  0
    7.8497   -1.7063   21.3392 O   0  0  0  0  0  0  0  0  0  0  0  0
    8.1442   -0.7487   20.3617 C   0  0  0  0  0  0  0  0  0  0  0  0
    9.3300   -0.3566   20.1818 O   0  0  0  0  0  0  0  0  0  0  0  0
    7.0300   -0.2145   19.5037 C   0  0  2  0  0  0  0  0  0  0  0  0
    6.1748    0.8585   20.2107 C   0  0  0  0  0  0  0  0  0  0  0  0
    5.5374    1.5699   19.0087 C   0  0  0  0  0  0  0  0  0  0  0  0
    6.1433    0.7824   17.8306 C   0  0  2  0  0  0  0  0  0  0  0  0
    5.4514   -0.5940   17.7674 C   0  0  0  0  0  0  0  0  0  0  0  0
    6.0895   -1.3122   18.9655 C   0  0  0  0  0  0  0  0  0  0  0  0
    7.4840    0.4624   18.2954 N   0  0  0  0  0  0  0  0  0  0  0  0
  1  2  3  0
  2  3  1  0
  3  4  1  0
  4  5  1  0
  5  6  1  0
  6  7  2  0
  8  6  1  1
  8  9  1  0
  9 10  1  0
 11 10  1  1
 11 12  1  0
 11 14  1  0
 12 13  1  0
 13  8  1  0
 14  8  1  0
M  END
>  <Hit>  (413) 
Mpro-x0991_0

>  <Receptor>  (413) 
Mpro-x0874_0

>  <SCORE>  (413) 
-11.1236

>  <SCORE.norm>  (413) 
-0.794543

>  <SCORE.heavy>  (413) 
14

>  <OrigSmiles>  (413) 
C#CCCOC(=O)C12CCC(CC1)N2

>  <SuCOS_Score>  (413) 
0.2944590044573186

>  <Max_SuCOS_Score>  (413) 
0.3434959349593496

>  <Cum_SuCOS_Score>  (413) 
3.142517434865618

>  <TransFSScore_50nM>  (413) 
0.012222999999999999

>  <TransFSScore_1uM>  (413) 
0.16098799999999999

>  <TransFSScore_10nM>  (413) 
0.022325000000000001

>  <TransFSScore_200nM>  (413) 
0.52655799999999997

>  <TransFSScore>  (413) 
0.1805235

>  <FeatureSteinScore>  (413) 
0.50836707099601697

$$$$
C#CCCOC(=O)C1CC2CCC1N2
     RDKit          3D

 14 15  0  0  0  0  0  0  0  0999 V2000
   10.0695   -4.5408   24.7593 C   0  0  0  0  0  0  0  0  0  0  0  0
    9.2775   -4.2509   23.8977 C   0  0  0  0  0  0  0  0  0  0  0  0
    8.3111   -3.8965   22.8471 C   0  0  0  0  0  0  0  0  0  0  0  0
    8.2631   -2.3801   22.6528 C   0  0  0  0  0  0  0  0  0  0  0  0
    7.9225   -2.0606   21.3055 O   0  0  0  0  0  0  0  0  0  0  0  0
    7.6805   -0.7556   20.8588 C   0  0  0  0  0  0  0  0  0  0  0  0
    7.5568    0.1890   21.6860 O   0  0  0  0  0  0  0  0  0  0  0  0
    7.4899   -0.4798   19.3884 C   0  0  2  0  0  0  0  0  0  0  0  0
    7.0665    0.9640   19.0404 C   0  0  0  0  0  0  0  0  0  0  0  0
    5.8150    0.7147   18.1731 C   0  0  2  0  0  0  0  0  0  0  0  0
    4.6531    0.3383   19.1098 C   0  0  0  0  0  0  0  0  0  0  0  0
    5.0297   -1.0978   19.4942 C   0  0  0  0  0  0  0  0  0  0  0  0
    6.3519   -1.2885   18.7160 C   0  0  1  0  0  0  0  0  0  0  0  0
    6.1133   -0.5373   17.4934 N   0  0  0  0  0  0  0  0  0  0  0  0
  1  2  3  0
  2  3  1  0
  3  4  1  0
  4  5  1  0
  5  6  1  0
  6  7  2  0
  8  6  1  1
  8  9  1  0
 10  9  1  1
 10 11  1  0
 11 12  1  0
 13 12  1  1
 13 14  1  0
 13  8  1  0
 14 10  1  0
M  END
>  <Hit>  (414) 
Mpro-x0991_0

>  <Receptor>  (414) 
Mpro-x0387_0

>  <SCORE>  (414) 
-10.152100000000001

>  <SCORE.norm>  (414) 
-0.72515200000000002

>  <SCORE.heavy>  (414) 
14

>  <OrigSmiles>  (414) 
C#CCCOC(=O)C1CC2CCC1N2

>  <SuCOS_Score>  (414) 
0.31446915394944341

>  <Max_SuCOS_Score>  (414) 
0.34464043419267298

>  <Cum_SuCOS_Score>  (414) 
3.017666176125144

>  <TransFSScore_50nM>  (414) 
0.010524

>  <TransFSScore_1uM>  (414) 
0.14884700000000001

>  <TransFSScore_10nM>  (414) 
0.015696999999999999

>  <TransFSScore_200nM>  (414) 
0.48161199999999998

>  <TransFSScore>  (414) 
0.16416999999999998

>  <FeatureSteinScore>  (414) 
0.52917378013402172

$$$$
C#CCCOC(=O)CC12CCC(CC1)N2
     RDKit          3D

 15 16  0  0  0  0  0  0  0  0999 V2000
    9.6459   -5.2966   25.2549 C   0  0  0  0  0  0  0  0  0  0  0  0
    9.1102   -4.6761   24.3707 C   0  0  0  0  0  0  0  0  0  0  0  0
    8.4618   -3.9178   23.2901 C   0  0  0  0  0  0  0  0  0  0  0  0
    9.2894   -2.6948   22.8891 C   0  0  0  0  0  0  0  0  0  0  0  0
    8.7522   -2.0743   21.7210 O   0  0  0  0  0  0  0  0  0  0  0  0
    9.3601   -1.0006   21.0602 C   0  0  0  0  0  0  0  0  0  0  0  0
   10.4313   -0.4962   21.4951 O   0  0  0  0  0  0  0  0  0  0  0  0
    8.7446   -0.4685   19.8015 C   0  0  0  0  0  0  0  0  0  0  0  0
    7.2473   -0.1226   19.9602 C   0  0  2  0  0  0  0  0  0  0  0  0
    6.5476    0.3728   18.6716 C   0  0  0  0  0  0  0  0  0  0  0  0
    5.0735    0.1137   19.0157 C   0  0  0  0  0  0  0  0  0  0  0  0
    5.1869   -0.4790   20.4343 C   0  0  2  0  0  0  0  0  0  0  0  0
    5.5220    0.6680   21.4048 C   0  0  0  0  0  0  0  0  0  0  0  0
    6.9958    0.9292   21.0670 C   0  0  0  0  0  0  0  0  0  0  0  0
    6.4213   -1.2478   20.3812 N   0  0  0  0  0  0  0  0  0  0  0  0
  1  2  3  0
  2  3  1  0
  3  4  1  0
  4  5  1  0
  5  6  1  0
  6  7  2  0
  6  8  1  0
  9  8  1  6
  9 10  1  0
 10 11  1  0
 12 11  1  6
 12 13  1  0
 12 15  1  0
 13 14  1  0
 14  9  1  0
 15  9  1  0
M  END
>  <Hit>  (415) 
Mpro-x0991_0

>  <Receptor>  (415) 
Mpro-x1249_0

>  <SCORE>  (415) 
-6.18459

>  <SCORE.norm>  (415) 
-0.41230600000000001

>  <SCORE.heavy>  (415) 
15

>  <OrigSmiles>  (415) 
C#CCCOC(=O)CC12CCC(CC1)N2

>  <SuCOS_Score>  (415) 
0.42031533877608901

>  <Max_SuCOS_Score>  (415) 
0.42031533877608901

>  <Cum_SuCOS_Score>  (415) 
3.6538979601511903

>  <TransFSScore_50nM>  (415) 
0.024302000000000001

>  <TransFSScore_1uM>  (415) 
0.206952

>  <TransFSScore_10nM>  (415) 
0.033156999999999999

>  <TransFSScore_200nM>  (415) 
0.37211300000000003

>  <TransFSScore>  (415) 
0.15913100000000002

>  <FeatureSteinScore>  (415) 
0.46040736271760446

$$$$
C#CCCOC(=O)[C@@H]1C[C@@H]2CC[C@H]1N2
     RDKit          3D

 14 15  0  0  0  0  0  0  0  0999 V2000
   10.0730   -4.3812   24.9385 C   0  0  0  0  0  0  0  0  0  0  0  0
    9.3639   -4.1088   24.0024 C   0  0  0  0  0  0  0  0  0  0  0  0
    8.4987   -3.7757   22.8606 C   0  0  0  0  0  0  0  0  0  0  0  0
    8.4433   -2.2612   22.6538 C   0  0  0  0  0  0  0  0  0  0  0  0
    8.0054   -1.9561   21.3316 O   0  0  0  0  0  0  0  0  0  0  0  0
    7.7272   -0.6560   20.8930 C   0  0  0  0  0  0  0  0  0  0  0  0
    7.7340    0.3076   21.7076 O   0  0  0  0  0  0  0  0  0  0  0  0
    7.5207   -0.4042   19.4210 C   0  0  2  0  0  0  0  0  0  0  0  0
    7.0828    1.0310   19.0553 C   0  0  0  0  0  0  0  0  0  0  0  0
    5.8254    0.7592   18.2032 C   0  0  2  0  0  0  0  0  0  0  0  0
    4.6743    0.3915   19.1561 C   0  0  0  0  0  0  0  0  0  0  0  0
    5.0642   -1.0349   19.5621 C   0  0  0  0  0  0  0  0  0  0  0  0
    6.3809   -1.2309   18.7749 C   0  0  1  0  0  0  0  0  0  0  0  0
    6.1258   -0.5022   17.5421 N   0  0  0  0  0  0  0  0  0  0  0  0
  1  2  3  0
  2  3  1  0
  3  4  1  0
  4  5  1  0
  5  6  1  0
  6  7  2  0
  8  6  1  1
  8  9  1  0
 10  9  1  1
 10 11  1  0
 11 12  1  0
 13 12  1  1
 13 14  1  0
 13  8  1  0
 14 10  1  0
M  END
>  <Hit>  (416) 
Mpro-x0991_0

>  <Receptor>  (416) 
Mpro-x0305_0

>  <SCORE>  (416) 
-10.6401

>  <SCORE.norm>  (416) 
-0.76000400000000001

>  <SCORE.heavy>  (416) 
14

>  <OrigSmiles>  (416) 
C#CCCOC(=O)[C@@H]1C[C@@H]2CC[C@H]1N2

>  <SuCOS_Score>  (416) 
0.28996063958848017

>  <Max_SuCOS_Score>  (416) 
0.34662437698232895

>  <Cum_SuCOS_Score>  (416) 
3.1036579876957102

>  <TransFSScore_50nM>  (416) 
0.0092499999999999995

>  <TransFSScore_1uM>  (416) 
0.13750799999999999

>  <TransFSScore_10nM>  (416) 
0.015421000000000001

>  <TransFSScore_200nM>  (416) 
0.43817499999999998

>  <TransFSScore>  (416) 
0.15008849999999999

>  <FeatureSteinScore>  (416) 
0.53282819704288076

$$$$
C#CCCOCC12CCC(CC1)N2
     RDKit          3D

 13 14  0  0  0  0  0  0  0  0999 V2000
    9.3857   -4.7949   24.4388 C   0  0  0  0  0  0  0  0  0  0  0  0
    8.6008   -4.2635   23.6939 C   0  0  0  0  0  0  0  0  0  0  0  0
    7.6408   -3.6177   22.7841 C   0  0  0  0  0  0  0  0  0  0  0  0
    8.3222   -2.5254   21.9547 C   0  0  0  0  0  0  0  0  0  0  0  0
    7.3871   -1.8773   21.1117 O   0  0  0  0  0  0  0  0  0  0  0  0
    8.0308   -0.9211   20.2932 C   0  0  0  0  0  0  0  0  0  0  0  0
    6.9937   -0.1995   19.4179 C   0  0  2  0  0  0  0  0  0  0  0  0
    6.1048    0.8105   20.1803 C   0  0  0  0  0  0  0  0  0  0  0  0
    5.6256    1.7099   19.0316 C   0  0  0  0  0  0  0  0  0  0  0  0
    6.3200    1.0574   17.8200 C   0  0  2  0  0  0  0  0  0  0  0  0
    5.5850   -0.2580   17.4989 C   0  0  0  0  0  0  0  0  0  0  0  0
    6.0658   -1.1624   18.6424 C   0  0  0  0  0  0  0  0  0  0  0  0
    7.5925    0.6078   18.3632 N   0  0  0  0  0  0  0  0  0  0  0  0
  1  2  3  0
  2  3  1  0
  3  4  1  0
  4  5  1  0
  5  6  1  0
  7  6  1  1
  7  8  1  0
  8  9  1  0
 10  9  1  1
 10 11  1  0
 10 13  1  0
 11 12  1  0
 12  7  1  0
 13  7  1  0
M  END
>  <Hit>  (417) 
Mpro-x0991_0

>  <Receptor>  (417) 
Mpro-x0305_0

>  <SCORE>  (417) 
-10.6356

>  <SCORE.norm>  (417) 
-0.81812200000000002

>  <SCORE.heavy>  (417) 
13

>  <OrigSmiles>  (417) 
C#CCCOCC12CCC(CC1)N2

>  <SuCOS_Score>  (417) 
0.36584561172322744

>  <Max_SuCOS_Score>  (417) 
0.36584561172322744

>  <Cum_SuCOS_Score>  (417) 
2.8744726430591889

>  <TransFSScore_50nM>  (417) 
0.014252000000000001

>  <TransFSScore_1uM>  (417) 
0.15718399999999999

>  <TransFSScore_10nM>  (417) 
0.0026059999999999998

>  <TransFSScore_200nM>  (417) 
0.26191999999999999

>  <TransFSScore>  (417) 
0.10899049999999999

>  <FeatureSteinScore>  (417) 
0.5359880068492322

$$$$
C#CCCOCC1CC2CCC1N2
     RDKit          3D

 13 14  0  0  0  0  0  0  0  0999 V2000
    9.2971   -4.9265   24.4622 C   0  0  0  0  0  0  0  0  0  0  0  0
    8.5950   -4.3685   23.6566 C   0  0  0  0  0  0  0  0  0  0  0  0
    7.7374   -3.6869   22.6734 C   0  0  0  0  0  0  0  0  0  0  0  0
    8.4848   -2.5372   22.0007 C   0  0  0  0  0  0  0  0  0  0  0  0
    7.6286   -1.8867   21.0828 O   0  0  0  0  0  0  0  0  0  0  0  0
    8.2789   -0.7756   20.4930 C   0  0  0  0  0  0  0  0  0  0  0  0
    7.2947    0.0084   19.6038 C   0  0  2  0  0  0  0  0  0  0  0  0
    6.0999    0.5893   20.3903 C   0  0  0  0  0  0  0  0  0  0  0  0
    4.9084   -0.0491   19.6506 C   0  0  1  0  0  0  0  0  0  0  0  0
    4.7698    0.6297   18.2736 C   0  0  0  0  0  0  0  0  0  0  0  0
    5.9419    0.0015   17.5048 C   0  0  0  0  0  0  0  0  0  0  0  0
    6.5624   -0.9041   18.5865 C   0  0  2  0  0  0  0  0  0  0  0  0
    5.3961   -1.3772   19.3184 N   0  0  0  0  0  0  0  0  0  0  0  0
  1  2  3  0
  2  3  1  0
  3  4  1  0
  4  5  1  0
  5  6  1  0
  7  6  1  1
  7  8  1  0
  9  8  1  1
  9 10  1  0
 10 11  1  0
 12 11  1  6
 12 13  1  0
 12  7  1  0
 13  9  1  0
M  END
>  <Hit>  (418) 
Mpro-x0991_0

>  <Receptor>  (418) 
Mpro-x0305_0

>  <SCORE>  (418) 
-10.000999999999999

>  <SCORE.norm>  (418) 
-0.76930699999999996

>  <SCORE.heavy>  (418) 
13

>  <OrigSmiles>  (418) 
C#CCCOCC1CC2CCC1N2

>  <SuCOS_Score>  (418) 
0.37528666789043541

>  <Max_SuCOS_Score>  (418) 
0.37528666789043541

>  <Cum_SuCOS_Score>  (418) 
2.9847687591714154

>  <TransFSScore_50nM>  (418) 
0.0074790000000000004

>  <TransFSScore_1uM>  (418) 
0.160301

>  <TransFSScore_10nM>  (418) 
0.014517

>  <TransFSScore_200nM>  (418) 
0.283665

>  <TransFSScore>  (418) 
0.1164905

>  <FeatureSteinScore>  (418) 
0.54735375298883582

$$$$
C#CCCS(=O)(=O)N1C2CCC1CC2
     RDKit          3D

 14 15  0  0  0  0  0  0  0  0999 V2000
    9.6244   -6.1464   26.0552 C   0  0  0  0  0  0  0  0  0  0  0  0
    8.9820   -5.4757   25.2865 C   0  0  0  0  0  0  0  0  0  0  0  0
    8.1978   -4.6580   24.3488 C   0  0  0  0  0  0  0  0  0  0  0  0
    9.1263   -3.8812   23.4135 C   0  0  0  0  0  0  0  0  0  0  0  0
   10.0157   -2.6124   24.3043 S   0  0  0  0  0  0  0  0  0  0  0  0
   10.4233   -3.1809   25.6352 O   0  0  0  0  0  0  0  0  0  0  0  0
    9.0852   -1.4523   24.5260 O   0  0  0  0  0  0  0  0  0  0  0  0
   11.4324   -2.1418   23.3725 N   0  0  0  0  0  0  0  0  0  0  0  0
   12.0246   -0.8547   23.7259 C   0  0  1  0  0  0  0  0  0  0  0  0
   13.2105   -0.7606   22.7382 C   0  0  0  0  0  0  0  0  0  0  0  0
   12.6189   -1.4415   21.4859 C   0  0  0  0  0  0  0  0  0  0  0  0
   11.1949   -1.7876   21.9746 C   0  0  2  0  0  0  0  0  0  0  0  0
   10.4083   -0.4556   22.0216 C   0  0  0  0  0  0  0  0  0  0  0  0
   10.9826    0.1958   23.2833 C   0  0  0  0  0  0  0  0  0  0  0  0
  1  2  3  0
  2  3  1  0
  3  4  1  0
  4  5  1  0
  5  6  2  0
  5  7  2  0
  5  8  1  0
  8  9  1  0
  9 10  1  6
 10 11  1  0
 12 11  1  6
 12 13  1  0
 12  8  1  0
 13 14  1  0
 14  9  1  0
M  END
>  <Hit>  (419) 
Mpro-x0991_0

>  <Receptor>  (419) 
Mpro-x0387_0

>  <SCORE>  (419) 
-3.8403399999999999

>  <SCORE.norm>  (419) 
-0.27431

>  <SCORE.heavy>  (419) 
14

>  <OrigSmiles>  (419) 
C#CCCS(=O)(=O)N1C2CCC1CC2

>  <SuCOS_Score>  (419) 
0.54048218480401522

>  <Max_SuCOS_Score>  (419) 
0.54048218480401522

>  <Cum_SuCOS_Score>  (419) 
4.4433158907686039

>  <TransFSScore_50nM>  (419) 
0.004267

>  <TransFSScore_1uM>  (419) 
0.14732899999999999

>  <TransFSScore_10nM>  (419) 
0.0073200000000000001

>  <TransFSScore_200nM>  (419) 
0.047600000000000003

>  <TransFSScore>  (419) 
0.051628999999999994

>  <FeatureSteinScore>  (419) 
0.5536745837968251

$$$$
C#CCCS(=O)(=O)N1C2CCC1CNC2
     RDKit          3D

 15 16  0  0  0  0  0  0  0  0999 V2000
    9.0122   -5.2408   27.2385 C   0  0  0  0  0  0  0  0  0  0  0  0
    8.6927   -4.4433   26.3928 C   0  0  0  0  0  0  0  0  0  0  0  0
    8.3024   -3.4704   25.3612 C   0  0  0  0  0  0  0  0  0  0  0  0
    9.3736   -2.3877   25.2171 C   0  0  0  0  0  0  0  0  0  0  0  0
    8.8876   -1.1591   24.0120 S   0  0  0  0  0  0  0  0  0  0  0  0
    7.6312   -0.5030   24.5120 O   0  0  0  0  0  0  0  0  0  0  0  0
    8.5956   -1.8652   22.7174 O   0  0  0  0  0  0  0  0  0  0  0  0
   10.1823    0.0196   23.8333 N   0  0  0  0  0  0  0  0  0  0  0  0
   11.5171   -0.4898   23.5072 C   0  0  2  0  0  0  0  0  0  0  0  0
   12.3547    0.7934   23.3550 C   0  0  0  0  0  0  0  0  0  0  0  0
   11.3410    1.8353   22.8732 C   0  0  0  0  0  0  0  0  0  0  0  0
   10.0120    1.0573   22.8126 C   0  0  1  0  0  0  0  0  0  0  0  0
    9.8365    0.4445   21.3911 C   0  0  0  0  0  0  0  0  0  0  0  0
   10.4237   -0.9077   21.2328 N   0  0  0  0  0  0  0  0  0  0  0  0
   11.5259   -1.2706   22.1569 C   0  0  0  0  0  0  0  0  0  0  0  0
  1  2  3  0
  2  3  1  0
  3  4  1  0
  4  5  1  0
  5  6  2  0
  5  7  2  0
  5  8  1  0
  8  9  1  0
  9 10  1  6
 10 11  1  0
 12 11  1  6
 12 13  1  0
 12  8  1  0
 13 14  1  0
 14 15  1  0
 15  9  1  0
M  END
>  <Hit>  (420) 
Mpro-x0991_0

>  <Receptor>  (420) 
Mpro-x1249_0

>  <SCORE>  (420) 
-10.261100000000001

>  <SCORE.norm>  (420) 
-0.68407600000000002

>  <SCORE.heavy>  (420) 
15

>  <OrigSmiles>  (420) 
C#CCCS(=O)(=O)N1C2CCC1CNC2

>  <SuCOS_Score>  (420) 
0.25391792795185314

>  <Max_SuCOS_Score>  (420) 
0.38651089189334781

>  <Cum_SuCOS_Score>  (420) 
4.3449338167475551

>  <TransFSScore_50nM>  (420) 
0.042444999999999997

>  <TransFSScore_1uM>  (420) 
0.152694

>  <TransFSScore_10nM>  (420) 
0.011839000000000001

>  <TransFSScore_200nM>  (420) 
0.20050100000000001

>  <TransFSScore>  (420) 
0.10186975000000001

>  <FeatureSteinScore>  (420) 
0.31043899436887906

$$$$
C#CCCS(=O)(=O)N1[C@H]2CC[C@@H]1CNC2
     RDKit          3D

 15 16  0  0  0  0  0  0  0  0999 V2000
    9.4029   -4.7565   27.5739 C   0  0  0  0  0  0  0  0  0  0  0  0
    9.2938   -4.6791   26.3757 C   0  0  0  0  0  0  0  0  0  0  0  0
    9.1599   -4.5831   24.9132 C   0  0  0  0  0  0  0  0  0  0  0  0
   10.2354   -3.6732   24.3116 C   0  0  0  0  0  0  0  0  0  0  0  0
    9.9031   -1.9370   24.6093 S   0  0  0  0  0  0  0  0  0  0  0  0
    8.6602   -1.5423   23.8612 O   0  0  0  0  0  0  0  0  0  0  0  0
    9.6760   -1.7253   26.0799 O   0  0  0  0  0  0  0  0  0  0  0  0
   11.2581   -0.9907   24.0184 N   0  0  0  0  0  0  0  0  0  0  0  0
   11.7867   -1.4745   22.7392 C   0  0  1  0  0  0  0  0  0  0  0  0
   10.8102   -0.9661   21.6692 C   0  0  0  0  0  0  0  0  0  0  0  0
   10.2557    0.3182   22.2669 C   0  0  0  0  0  0  0  0  0  0  0  0
   10.8985    0.3881   23.6657 C   0  0  2  0  0  0  0  0  0  0  0  0
   12.2070    1.2276   23.5952 C   0  0  0  0  0  0  0  0  0  0  0  0
   13.4138    0.4171   23.2776 N   0  0  0  0  0  0  0  0  0  0  0  0
   13.1931   -0.8389   22.5106 C   0  0  0  0  0  0  0  0  0  0  0  0
  1  2  3  0
  2  3  1  0
  3  4  1  0
  4  5  1  0
  5  6  2  0
  5  7  2  0
  5  8  1  0
  8  9  1  0
  9 10  1  6
 10 11  1  0
 12 11  1  6
 12 13  1  0
 12  8  1  0
 13 14  1  0
 14 15  1  0
 15  9  1  0
M  END
>  <Hit>  (421) 
Mpro-x0991_0

>  <Receptor>  (421) 
Mpro-x0305_0

>  <SCORE>  (421) 
-6.8753000000000002

>  <SCORE.norm>  (421) 
-0.45835300000000001

>  <SCORE.heavy>  (421) 
15

>  <OrigSmiles>  (421) 
C#CCCS(=O)(=O)N1[C@H]2CC[C@@H]1CNC2

>  <SuCOS_Score>  (421) 
0.29668384565555245

>  <Max_SuCOS_Score>  (421) 
0.41223570416415872

>  <Cum_SuCOS_Score>  (421) 
4.6951270426317198

>  <TransFSScore_50nM>  (421) 
0.018634000000000001

>  <TransFSScore_1uM>  (421) 
0.36515999999999998

>  <TransFSScore_10nM>  (421) 
0.0059569999999999996

>  <TransFSScore_200nM>  (421) 
0.15581200000000001

>  <TransFSScore>  (421) 
0.13639075000000001

>  <FeatureSteinScore>  (421) 
0.30679536367934113

$$$$
C#CCCS(=O)(=O)NCC12CC(CN1)C2
     RDKit          3D

 15 16  0  0  0  0  0  0  0  0999 V2000
   10.3529   -5.4339   25.9272 C   0  0  0  0  0  0  0  0  0  0  0  0
    9.8106   -4.7047   25.1352 C   0  0  0  0  0  0  0  0  0  0  0  0
    9.1481   -3.8151   24.1693 C   0  0  0  0  0  0  0  0  0  0  0  0
   10.1826   -2.9705   23.4255 C   0  0  0  0  0  0  0  0  0  0  0  0
    9.3949   -1.7932   22.3367 S   0  0  0  0  0  0  0  0  0  0  0  0
    8.2816   -2.4678   21.5818 O   0  0  0  0  0  0  0  0  0  0  0  0
    8.8124   -0.6890   23.1736 O   0  0  0  0  0  0  0  0  0  0  0  0
   10.5745   -1.1199   21.2468 N   0  0  0  0  0  0  0  0  0  0  0  0
   11.8922   -1.0508   21.8862 C   0  0  0  0  0  0  0  0  0  0  0  0
   11.9593    0.1213   22.8702 C   0  0  1  0  0  0  0  0  0  0  0  0
   11.6265    1.5214   22.3826 C   0  0  0  0  0  0  0  0  0  0  0  0
   12.4300    1.8586   23.6325 C   0  0  1  0  0  0  0  0  0  0  0  0
   11.4917    1.2834   24.6979 C   0  0  0  0  0  0  0  0  0  0  0  0
   11.1391   -0.0122   24.0812 N   0  0  0  0  0  0  0  0  0  0  0  0
   13.3009    0.6363   23.3779 C   0  0  0  0  0  0  0  0  0  0  0  0
  1  2  3  0
  2  3  1  0
  3  4  1  0
  4  5  1  0
  5  6  2  0
  5  7  2  0
  5  8  1  0
  8  9  1  0
 10  9  1  6
 10 11  1  0
 12 11  1  6
 12 13  1  0
 12 15  1  0
 13 14  1  0
 14 10  1  0
 15 10  1  0
M  END
>  <Hit>  (422) 
Mpro-x0991_0

>  <Receptor>  (422) 
Mpro-x0874_0

>  <SCORE>  (422) 
-10.1778

>  <SCORE.norm>  (422) 
-0.67852100000000004

>  <SCORE.heavy>  (422) 
15

>  <OrigSmiles>  (422) 
C#CCCS(=O)(=O)NCC12CC(CN1)C2

>  <SuCOS_Score>  (422) 
0.31086457583709115

>  <Max_SuCOS_Score>  (422) 
0.36951177610904617

>  <Cum_SuCOS_Score>  (422) 
4.5544239178654102

>  <TransFSScore_50nM>  (422) 
0.017011999999999999

>  <TransFSScore_1uM>  (422) 
0.111818

>  <TransFSScore_10nM>  (422) 
0.0052119999999999996

>  <TransFSScore_200nM>  (422) 
0.82722300000000004

>  <TransFSScore>  (422) 
0.24031625000000001

>  <FeatureSteinScore>  (422) 
0.37533552268242748

$$$$
C#CCCc1ccc(Br)cc1Cl
     RDKit          3D

 12 12  0  0  0  0  0  0  0  0999 V2000
   14.2599    5.1418   22.7023 C   0  0  0  0  0  0  0  0  0  0  0  0
   13.0598    5.0390   22.7520 C   0  0  0  0  0  0  0  0  0  0  0  0
   11.5975    4.9116   22.8114 C   0  0  0  0  0  0  0  0  0  0  0  0
   11.1738    3.6851   23.6288 C   0  0  0  0  0  0  0  0  0  0  0  0
   11.7266    2.4018   23.0497 C   0  0  0  0  0  0  0  0  0  0  0  0
   13.0184    1.9839   23.4124 C   0  0  0  0  0  0  0  0  0  0  0  0
   13.5463    0.7902   22.9153 C   0  0  0  0  0  0  0  0  0  0  0  0
   12.7926   -0.0052   22.0496 C   0  0  0  0  0  0  0  0  0  0  0  0
   13.5510   -1.6217   21.3484 Br  0  0  0  0  0  0  0  0  0  0  0  0
   11.4997    0.3898   21.6894 C   0  0  0  0  0  0  0  0  0  0  0  0
   10.9611    1.5859   22.1855 C   0  0  0  0  0  0  0  0  0  0  0  0
    9.3271    2.0257   21.6984 Cl  0  0  0  0  0  0  0  0  0  0  0  0
  1  2  3  0
  2  3  1  0
  3  4  1  0
  4  5  1  0
  5  6  2  0
  6  7  1  0
  7  8  2  0
  8  9  1  0
  8 10  1  0
 10 11  2  0
 11 12  1  0
 11  5  1  0
M  END
>  <Hit>  (423) 
Mpro-x0946_0

>  <Receptor>  (423) 
Mpro-x0874_0

>  <SCORE>  (423) 
-10.227499999999999

>  <SCORE.norm>  (423) 
-0.85229299999999997

>  <SCORE.heavy>  (423) 
12

>  <OrigSmiles>  (423) 
C#CCCc1ccc(Br)cc1Cl

>  <SuCOS_Score>  (423) 
0.42477360671341169

>  <Max_SuCOS_Score>  (423) 
0.42477360671341169

>  <Cum_SuCOS_Score>  (423) 
3.3086456868693719

>  <TransFSScore_50nM>  (423) 
0.14696699999999999

>  <TransFSScore_1uM>  (423) 
0.079622999999999999

>  <TransFSScore_10nM>  (423) 
0.0021540000000000001

>  <TransFSScore_200nM>  (423) 
0.078423000000000007

>  <TransFSScore>  (423) 
0.076791749999999992

>  <FeatureSteinScore>  (423) 
0.24855577018137595

$$$$
C#CCCc1ccc(Cl)c(S(N)(=O)=O)c1
     RDKit          3D

 15 15  0  0  0  0  0  0  0  0999 V2000
   13.5146   -1.0961   21.5441 C   0  0  0  0  0  0  0  0  0  0  0  0
   12.4815   -0.8380   22.1090 C   0  0  0  0  0  0  0  0  0  0  0  0
   11.2228   -0.5207   22.7970 C   0  0  0  0  0  0  0  0  0  0  0  0
   11.4689    0.3074   24.0631 C   0  0  0  0  0  0  0  0  0  0  0  0
   11.8779    1.7219   23.7358 C   0  0  0  0  0  0  0  0  0  0  0  0
   13.1222    1.9843   23.1487 C   0  0  0  0  0  0  0  0  0  0  0  0
   13.5117    3.2929   22.8730 C   0  0  0  0  0  0  0  0  0  0  0  0
   12.6715    4.3618   23.1733 C   0  0  0  0  0  0  0  0  0  0  0  0
   13.2713    5.9602   22.7391 Cl  0  0  0  0  0  0  0  0  0  0  0  0
   11.4192    4.1131   23.7744 C   0  0  0  0  0  0  0  0  0  0  0  0
   10.2708    5.3826   24.1053 S   0  0  0  0  0  0  0  0  0  0  0  0
   10.0017    6.2145   22.6313 N   0  0  0  0  0  0  0  0  0  0  0  0
    8.9826    4.7835   24.5784 O   0  0  0  0  0  0  0  0  0  0  0  0
   10.7917    6.3505   25.1215 O   0  0  0  0  0  0  0  0  0  0  0  0
   11.0320    2.7929   24.0518 C   0  0  0  0  0  0  0  0  0  0  0  0
  1  2  3  0
  2  3  1  0
  3  4  1  0
  4  5  1  0
  5  6  2  0
  6  7  1  0
  7  8  2  0
  8  9  1  0
  8 10  1  0
 10 11  1  0
 10 15  2  0
 11 12  1  0
 11 13  2  0
 11 14  2  0
 15  5  1  0
M  END
>  <Hit>  (424) 
Mpro-x0946_0

>  <Receptor>  (424) 
Mpro-x0874_0

>  <SCORE>  (424) 
-10.2775

>  <SCORE.norm>  (424) 
-0.68516699999999997

>  <SCORE.heavy>  (424) 
15

>  <OrigSmiles>  (424) 
C#CCCc1ccc(Cl)c(S(N)(=O)=O)c1

>  <SuCOS_Score>  (424) 
0.605200939148685

>  <Max_SuCOS_Score>  (424) 
0.605200939148685

>  <Cum_SuCOS_Score>  (424) 
4.4782064665485812

>  <TransFSScore_50nM>  (424) 
0.69026900000000002

>  <TransFSScore_1uM>  (424) 
0.22861999999999999

>  <TransFSScore_10nM>  (424) 
0.48431200000000002

>  <TransFSScore_200nM>  (424) 
0.836067

>  <TransFSScore>  (424) 
0.55981700000000001

>  <FeatureSteinScore>  (424) 
0.56152283649704837

$$$$
C#CCN(C(=O)C(C)OCc1ccccc1)C1CCC1
     RDKit          3D

 20 21  0  0  0  0  0  0  0  0999 V2000
    4.8599   -3.9569   22.4699 C   0  0  0  0  0  0  0  0  0  0  0  0
    5.2551   -3.3901   21.4820 C   0  0  0  0  0  0  0  0  0  0  0  0
    5.7450   -2.6941   20.2816 C   0  0  0  0  0  0  0  0  0  0  0  0
    5.8498   -1.2262   20.4853 N   0  0  0  0  0  0  0  0  0  0  0  0
    6.7585   -0.9657   21.5928 C   0  0  0  0  0  0  0  0  0  0  0  0
    6.3383   -0.3936   22.5902 O   0  0  0  0  0  0  0  0  0  0  0  0
    8.2054   -1.4196   21.5723 C   0  0  1  0  0  0  0  0  0  0  0  0
    9.1223   -0.2526   21.1993 C   0  0  0  0  0  0  0  0  0  0  0  0
    8.5418   -1.8840   22.8690 O   0  0  0  0  0  0  0  0  0  0  0  0
    9.6894   -2.7057   22.8310 C   0  0  0  0  0  0  0  0  0  0  0  0
   10.9067   -1.8428   22.9881 C   0  0  0  0  0  0  0  0  0  0  0  0
   11.9436   -1.9073   22.0450 C   0  0  0  0  0  0  0  0  0  0  0  0
   13.0732   -1.0984   22.1867 C   0  0  0  0  0  0  0  0  0  0  0  0
   13.1678   -0.2107   23.2610 C   0  0  0  0  0  0  0  0  0  0  0  0
   12.1301   -0.1268   24.1927 C   0  0  0  0  0  0  0  0  0  0  0  0
   10.9992   -0.9359   24.0556 C   0  0  0  0  0  0  0  0  0  0  0  0
    6.3155   -0.5257   19.2565 C   0  0  0  0  0  0  0  0  0  0  0  0
    5.2929   -0.5168   18.1125 C   0  0  0  0  0  0  0  0  0  0  0  0
    5.2309    1.0015   18.1699 C   0  0  0  0  0  0  0  0  0  0  0  0
    6.2116    1.0042   19.3312 C   0  0  0  0  0  0  0  0  0  0  0  0
  1  2  3  0
  2  3  1  0
  3  4  1  0
  4  5  1  0
  4 17  1  0
  5  6  2  0
  5  7  1  0
  7  8  1  1
  7  9  1  0
  9 10  1  0
 10 11  1  0
 11 12  2  0
 12 13  1  0
 13 14  2  0
 14 15  1  0
 15 16  2  0
 16 11  1  0
 17 18  1  0
 18 19  1  0
 19 20  1  0
 20 17  1  0
M  END
>  <Hit>  (425) 
Mpro-x0072_0

>  <Receptor>  (425) 
Mpro-x0387_0

>  <SCORE>  (425) 
-10.8302

>  <SCORE.norm>  (425) 
-0.54150900000000002

>  <SCORE.heavy>  (425) 
20

>  <OrigSmiles>  (425) 
C#CCN(C(=O)C(C)OCc1ccccc1)C1CCC1

>  <SuCOS_Score>  (425) 
0.38544429240382055

>  <Max_SuCOS_Score>  (425) 
0.45314392654318592

>  <Cum_SuCOS_Score>  (425) 
5.9324409510585472

>  <TransFSScore_50nM>  (425) 
0.15456

>  <TransFSScore_1uM>  (425) 
0.73650599999999999

>  <TransFSScore_10nM>  (425) 
0.17330999999999999

>  <TransFSScore_200nM>  (425) 
0.328428

>  <TransFSScore>  (425) 
0.34820099999999998

>  <FeatureSteinScore>  (425) 
0.30240360609493699

$$$$
C#CCN(C(=O)C(N)C(C)OCc1ccccc1)C1CCC1
     RDKit          3D

 22 23  0  0  0  0  0  0  0  0999 V2000
    6.0599    1.4853   17.1805 C   0  0  0  0  0  0  0  0  0  0  0  0
    5.8045    0.8122   18.1472 C   0  0  0  0  0  0  0  0  0  0  0  0
    5.4954   -0.0092   19.3250 C   0  0  0  0  0  0  0  0  0  0  0  0
    6.3308    0.3865   20.4756 N   0  0  0  0  0  0  0  0  0  0  0  0
    6.8740   -0.6296   21.3378 C   0  0  0  0  0  0  0  0  0  0  0  0
    6.3012   -0.8597   22.4371 O   0  0  0  0  0  0  0  0  0  0  0  0
    8.1655   -1.3646   21.0282 C   0  0  1  0  0  0  0  0  0  0  0  0
    9.2444   -0.4617   20.6059 N   0  0  0  0  0  0  0  0  0  0  0  0
    8.5937   -2.2988   22.1964 C   0  0  2  0  0  0  0  0  0  0  0  0
    7.6501   -3.4889   22.4042 C   0  0  0  0  0  0  0  0  0  0  0  0
    8.6223   -1.5429   23.4004 O   0  0  0  0  0  0  0  0  0  0  0  0
    9.6984   -1.9204   24.2389 C   0  0  0  0  0  0  0  0  0  0  0  0
   11.0138   -1.4738   23.6573 C   0  0  0  0  0  0  0  0  0  0  0  0
   11.6391   -2.2466   22.6676 C   0  0  0  0  0  0  0  0  0  0  0  0
   12.8750   -1.8561   22.1482 C   0  0  0  0  0  0  0  0  0  0  0  0
   13.4951   -0.6953   22.6163 C   0  0  0  0  0  0  0  0  0  0  0  0
   12.8810    0.0755   23.6064 C   0  0  0  0  0  0  0  0  0  0  0  0
   11.6453   -0.3128   24.1295 C   0  0  0  0  0  0  0  0  0  0  0  0
    6.4083    1.7828   20.9521 C   0  0  0  0  0  0  0  0  0  0  0  0
    7.7637    2.1671   21.5418 C   0  0  0  0  0  0  0  0  0  0  0  0
    7.1011    2.3897   22.8973 C   0  0  0  0  0  0  0  0  0  0  0  0
    5.7460    2.0114   22.3086 C   0  0  0  0  0  0  0  0  0  0  0  0
  1  2  3  0
  2  3  1  0
  3  4  1  0
  4  5  1  0
  4 19  1  0
  5  6  2  0
  5  7  1  0
  7  8  1  1
  7  9  1  0
  9 10  1  1
  9 11  1  0
 11 12  1  0
 12 13  1  0
 13 14  2  0
 14 15  1  0
 15 16  2  0
 16 17  1  0
 17 18  2  0
 18 13  1  0
 19 20  1  0
 20 21  1  0
 21 22  1  0
 22 19  1  0
M  END
>  <Hit>  (426) 
Mpro-x0072_0

>  <Receptor>  (426) 
Mpro-x0387_0

>  <SCORE>  (426) 
-12.2658

>  <SCORE.norm>  (426) 
-0.55753600000000003

>  <SCORE.heavy>  (426) 
22

>  <OrigSmiles>  (426) 
C#CCN(C(=O)C(N)C(C)OCc1ccccc1)C1CCC1

>  <SuCOS_Score>  (426) 
0.38948921466253028

>  <Max_SuCOS_Score>  (426) 
0.48176838200179589

>  <Cum_SuCOS_Score>  (426) 
6.3189330841991493

>  <TransFSScore_50nM>  (426) 
0.099196000000000006

>  <TransFSScore_1uM>  (426) 
0.53667500000000001

>  <TransFSScore_10nM>  (426) 
0.49428299999999997

>  <TransFSScore_200nM>  (426) 
0.66208199999999995

>  <TransFSScore>  (426) 
0.44805899999999999

>  <FeatureSteinScore>  (426) 
0.2077613142061577

$$$$
C#CCN(C(=O)C(N)CN(C)Cc1ccccc1)C1CCC1
     RDKit          3D

 22 23  0  0  0  0  0  0  0  0999 V2000
    6.1507   -5.4362   20.5964 C   0  0  0  0  0  0  0  0  0  0  0  0
    5.7861   -4.3344   20.9220 C   0  0  0  0  0  0  0  0  0  0  0  0
    5.3454   -2.9925   21.3200 C   0  0  0  0  0  0  0  0  0  0  0  0
    6.0388   -1.9709   20.5209 N   0  0  0  0  0  0  0  0  0  0  0  0
    7.2471   -1.3560   21.0326 C   0  0  0  0  0  0  0  0  0  0  0  0
    7.3524   -0.0999   21.0396 O   0  0  0  0  0  0  0  0  0  0  0  0
    8.4120   -2.1777   21.5401 C   0  0  1  0  0  0  0  0  0  0  0  0
    9.6636   -1.4313   21.4001 N   0  0  0  0  0  0  0  0  0  0  0  0
    8.1815   -2.5968   23.0066 C   0  0  0  0  0  0  0  0  0  0  0  0
    9.2359   -3.5375   23.4543 N   0  0  0  0  0  0  0  0  0  0  0  0
    8.6396   -4.8177   23.8861 C   0  0  0  0  0  0  0  0  0  0  0  0
   10.0452   -2.9494   24.5438 C   0  0  0  0  0  0  0  0  0  0  0  0
   11.1109   -2.0413   23.9886 C   0  0  0  0  0  0  0  0  0  0  0  0
   11.9308   -2.4692   22.9334 C   0  0  0  0  0  0  0  0  0  0  0  0
   12.9200   -1.6243   22.4260 C   0  0  0  0  0  0  0  0  0  0  0  0
   13.0933   -0.3472   22.9644 C   0  0  0  0  0  0  0  0  0  0  0  0
   12.2757    0.0882   24.0103 C   0  0  0  0  0  0  0  0  0  0  0  0
   11.2863   -0.7550   24.5223 C   0  0  0  0  0  0  0  0  0  0  0  0
    5.4037   -1.5241   19.2604 C   0  0  0  0  0  0  0  0  0  0  0  0
    6.3751   -1.0784   18.1652 C   0  0  0  0  0  0  0  0  0  0  0  0
    5.8089    0.3346   18.2509 C   0  0  0  0  0  0  0  0  0  0  0  0
    4.8368   -0.1098   19.3385 C   0  0  0  0  0  0  0  0  0  0  0  0
  1  2  3  0
  2  3  1  0
  3  4  1  0
  4  5  1  0
  4 19  1  0
  5  6  2  0
  5  7  1  0
  7  8  1  1
  7  9  1  0
  9 10  1  0
 10 11  1  0
 10 12  1  0
 12 13  1  0
 13 14  2  0
 14 15  1  0
 15 16  2  0
 16 17  1  0
 17 18  2  0
 18 13  1  0
 19 20  1  0
 20 21  1  0
 21 22  1  0
 22 19  1  0
M  END
>  <Hit>  (427) 
Mpro-x0072_0

>  <Receptor>  (427) 
Mpro-x0387_0

>  <SCORE>  (427) 
-13.154400000000001

>  <SCORE.norm>  (427) 
-0.59792599999999996

>  <SCORE.heavy>  (427) 
22

>  <OrigSmiles>  (427) 
C#CCN(C(=O)C(N)CN(C)Cc1ccccc1)C1CCC1

>  <SuCOS_Score>  (427) 
0.37818675964375242

>  <Max_SuCOS_Score>  (427) 
0.48471946707331531

>  <Cum_SuCOS_Score>  (427) 
5.8706269323299294

>  <TransFSScore_50nM>  (427) 
0.83412900000000001

>  <TransFSScore_1uM>  (427) 
0.32872099999999999

>  <TransFSScore_10nM>  (427) 
0.33200400000000002

>  <TransFSScore_200nM>  (427) 
0.46516099999999999

>  <TransFSScore>  (427) 
0.49000374999999996

>  <FeatureSteinScore>  (427) 
0.2643640091319871

$$$$
C#CCN(C(=O)C12CC(CN1)C2)C(C)C
     RDKit          3D

 15 16  0  0  0  0  0  0  0  0999 V2000
    8.9689   -4.4111   23.7992 C   0  0  0  0  0  0  0  0  0  0  0  0
    9.3770   -4.3302   24.9306 C   0  0  0  0  0  0  0  0  0  0  0  0
    9.8760   -4.2326   26.3171 C   0  0  0  0  0  0  0  0  0  0  0  0
    8.9490   -3.4782   27.2000 N   0  0  0  0  0  0  0  0  0  0  0  0
    9.7418   -2.8163   28.2284 C   0  0  0  0  0  0  0  0  0  0  0  0
   10.3846   -3.4907   29.0234 O   0  0  0  0  0  0  0  0  0  0  0  0
    9.8096   -1.3056   28.3507 C   0  0  1  0  0  0  0  0  0  0  0  0
    8.5882   -0.4924   27.9431 C   0  0  0  0  0  0  0  0  0  0  0  0
    9.6731    0.5631   27.7766 C   0  0  1  0  0  0  0  0  0  0  0  0
   10.1144    0.7108   29.2387 C   0  0  0  0  0  0  0  0  0  0  0  0
   10.2071   -0.7106   29.6364 N   0  0  0  0  0  0  0  0  0  0  0  0
   10.6322   -0.5319   27.3292 C   0  0  0  0  0  0  0  0  0  0  0  0
    7.9082   -4.3451   27.8373 C   0  0  0  0  0  0  0  0  0  0  0  0
    7.0246   -3.5363   28.8132 C   0  0  0  0  0  0  0  0  0  0  0  0
    6.9877   -5.0162   26.7979 C   0  0  0  0  0  0  0  0  0  0  0  0
  1  2  3  0
  2  3  1  0
  3  4  1  0
  4  5  1  0
  4 13  1  0
  5  6  2  0
  7  5  1  1
  7  8  1  0
  9  8  1  1
  9 10  1  0
  9 12  1  0
 10 11  1  0
 11  7  1  0
 12  7  1  0
 13 14  1  0
 13 15  1  0
M  END
>  <Hit>  (428) 
Mpro-x0991_0

>  <Receptor>  (428) 
Mpro-x0387_0

>  <SCORE>  (428) 
-3.72478

>  <SCORE.norm>  (428) 
-0.24831900000000001

>  <SCORE.heavy>  (428) 
15

>  <OrigSmiles>  (428) 
C#CCN(C(=O)C12CC(CN1)C2)C(C)C

>  <SuCOS_Score>  (428) 
0.3227085957521435

>  <Max_SuCOS_Score>  (428) 
0.3227085957521435

>  <Cum_SuCOS_Score>  (428) 
1.4027509048578777

>  <TransFSScore_50nM>  (428) 
0.03773

>  <TransFSScore_1uM>  (428) 
0.15576899999999999

>  <TransFSScore_10nM>  (428) 
0.0155

>  <TransFSScore_200nM>  (428) 
0.044617999999999998

>  <TransFSScore>  (428) 
0.063404249999999995

>  <FeatureSteinScore>  (428) 
0.26563709593382467

$$$$
C#CCN(C(=O)C1C2CNC1C2)C(C)C
     RDKit          3D

 15 16  0  0  0  0  0  0  0  0999 V2000
    7.6166   -5.1717   22.6583 C   0  0  0  0  0  0  0  0  0  0  0  0
    8.4704   -5.2121   23.5080 C   0  0  0  0  0  0  0  0  0  0  0  0
    9.5112   -5.2642   24.5472 C   0  0  0  0  0  0  0  0  0  0  0  0
    9.2568   -4.2612   25.5917 N   0  0  0  0  0  0  0  0  0  0  0  0
    9.4335   -2.8572   25.2886 C   0  0  0  0  0  0  0  0  0  0  0  0
    8.6981   -1.9945   25.8405 O   0  0  0  0  0  0  0  0  0  0  0  0
   10.4758   -2.4033   24.2852 C   0  0  2  0  0  0  0  0  0  0  0  0
   10.3419   -0.9435   23.8526 C   0  0  1  0  0  0  0  0  0  0  0  0
   11.5242   -0.8680   22.8797 C   0  0  0  0  0  0  0  0  0  0  0  0
   11.3182   -2.1190   22.1165 N   0  0  0  0  0  0  0  0  0  0  0  0
   10.1121   -2.5958   22.8086 C   0  0  2  0  0  0  0  0  0  0  0  0
    9.2480   -1.3403   22.8717 C   0  0  0  0  0  0  0  0  0  0  0  0
    8.8342   -4.7052   26.9377 C   0  0  0  0  0  0  0  0  0  0  0  0
    9.7378   -4.1153   28.0278 C   0  0  0  0  0  0  0  0  0  0  0  0
    7.3578   -4.3797   27.1906 C   0  0  0  0  0  0  0  0  0  0  0  0
  1  2  3  0
  2  3  1  0
  3  4  1  0
  4  5  1  0
  4 13  1  0
  5  6  2  0
  7  5  1  1
  7  8  1  0
  8  9  1  6
  9 10  1  0
 10 11  1  0
 11 12  1  6
 11  7  1  0
 12  8  1  0
 13 14  1  0
 13 15  1  0
M  END
>  <Hit>  (429) 
Mpro-x0991_0

>  <Receptor>  (429) 
Mpro-x0387_0

>  <SCORE>  (429) 
-5.07498

>  <SCORE.norm>  (429) 
-0.33833200000000002

>  <SCORE.heavy>  (429) 
15

>  <OrigSmiles>  (429) 
C#CCN(C(=O)C1C2CNC1C2)C(C)C

>  <SuCOS_Score>  (429) 
0.5104692841712356

>  <Max_SuCOS_Score>  (429) 
0.5104692841712356

>  <Cum_SuCOS_Score>  (429) 
4.0199958166621679

>  <TransFSScore_50nM>  (429) 
0.011899

>  <TransFSScore_1uM>  (429) 
0.14286699999999999

>  <TransFSScore_10nM>  (429) 
0.015545

>  <TransFSScore_200nM>  (429) 
0.247146

>  <TransFSScore>  (429) 
0.10436424999999999

>  <FeatureSteinScore>  (429) 
0.3995445502167066

$$$$
C#CCN(C(=O)CNCc1ccccc1)C1CCC1
     RDKit          3D

 19 20  0  0  0  0  0  0  0  0999 V2000
    5.5585   -3.8549   20.9160 C   0  0  0  0  0  0  0  0  0  0  0  0
    5.6947   -2.8562   20.2551 C   0  0  0  0  0  0  0  0  0  0  0  0
    5.8608   -1.6332   19.4506 C   0  0  0  0  0  0  0  0  0  0  0  0
    5.8154   -0.4168   20.3031 N   0  0  0  0  0  0  0  0  0  0  0  0
    6.9022   -0.4131   21.2706 C   0  0  0  0  0  0  0  0  0  0  0  0
    6.6430   -0.4499   22.4660 O   0  0  0  0  0  0  0  0  0  0  0  0
    8.3555   -0.3464   20.8545 C   0  0  0  0  0  0  0  0  0  0  0  0
    9.0347   -1.6183   21.1436 N   0  0  0  0  0  0  0  0  0  0  0  0
    9.4255   -1.6890   22.5590 C   0  0  0  0  0  0  0  0  0  0  0  0
   10.8503   -1.2335   22.7341 C   0  0  0  0  0  0  0  0  0  0  0  0
   11.8920   -1.9079   22.0795 C   0  0  0  0  0  0  0  0  0  0  0  0
   13.2125   -1.4815   22.2364 C   0  0  0  0  0  0  0  0  0  0  0  0
   13.4992   -0.3727   23.0358 C   0  0  0  0  0  0  0  0  0  0  0  0
   12.4650    0.3148   23.6760 C   0  0  0  0  0  0  0  0  0  0  0  0
   11.1428   -0.1102   23.5233 C   0  0  0  0  0  0  0  0  0  0  0  0
    5.7652    0.8892   19.5813 C   0  0  0  0  0  0  0  0  0  0  0  0
    4.5171    1.1957   18.7387 C   0  0  0  0  0  0  0  0  0  0  0  0
    4.2005    2.3786   19.6452 C   0  0  0  0  0  0  0  0  0  0  0  0
    5.4349    2.0803   20.4866 C   0  0  0  0  0  0  0  0  0  0  0  0
  1  2  3  0
  2  3  1  0
  3  4  1  0
  4  5  1  0
  4 16  1  0
  5  6  2  0
  5  7  1  0
  7  8  1  0
  8  9  1  0
  9 10  1  0
 10 11  2  0
 11 12  1  0
 12 13  2  0
 13 14  1  0
 14 15  2  0
 15 10  1  0
 16 17  1  0
 17 18  1  0
 18 19  1  0
 19 16  1  0
M  END
>  <Hit>  (430) 
Mpro-x0072_0

>  <Receptor>  (430) 
Mpro-x0387_0

>  <SCORE>  (430) 
-13.652799999999999

>  <SCORE.norm>  (430) 
-0.71857099999999996

>  <SCORE.heavy>  (430) 
19

>  <OrigSmiles>  (430) 
C#CCN(C(=O)CNCc1ccccc1)C1CCC1

>  <SuCOS_Score>  (430) 
0.40511714833935841

>  <Max_SuCOS_Score>  (430) 
0.47625210886630792

>  <Cum_SuCOS_Score>  (430) 
5.9588586727331094

>  <TransFSScore_50nM>  (430) 
0.095014000000000001

>  <TransFSScore_1uM>  (430) 
0.55285499999999999

>  <TransFSScore_10nM>  (430) 
0.15174499999999999

>  <TransFSScore_200nM>  (430) 
0.285053

>  <TransFSScore>  (430) 
0.27116675000000001

>  <FeatureSteinScore>  (430) 
0.35973120605600245

$$$$
C#CCN(C(=O)COCc1ccccc1)C1CCC1
     RDKit          3D

 19 20  0  0  0  0  0  0  0  0999 V2000
    6.2040    0.8913   24.3855 C   0  0  0  0  0  0  0  0  0  0  0  0
    6.5776    0.6969   23.2558 C   0  0  0  0  0  0  0  0  0  0  0  0
    7.0239    0.4541   21.8749 C   0  0  0  0  0  0  0  0  0  0  0  0
    6.2014   -0.5707   21.1878 N   0  0  0  0  0  0  0  0  0  0  0  0
    6.3794   -1.8472   21.8655 C   0  0  0  0  0  0  0  0  0  0  0  0
    5.4399   -2.3393   22.4756 O   0  0  0  0  0  0  0  0  0  0  0  0
    7.6878   -2.6054   21.8297 C   0  0  0  0  0  0  0  0  0  0  0  0
    8.7444   -1.7821   22.2874 O   0  0  0  0  0  0  0  0  0  0  0  0
    9.9494   -2.5131   22.3660 C   0  0  0  0  0  0  0  0  0  0  0  0
   11.0420   -1.5961   22.8317 C   0  0  0  0  0  0  0  0  0  0  0  0
   12.2870   -1.6009   22.1842 C   0  0  0  0  0  0  0  0  0  0  0  0
   13.3039   -0.7437   22.6106 C   0  0  0  0  0  0  0  0  0  0  0  0
   13.0798    0.1325   23.6749 C   0  0  0  0  0  0  0  0  0  0  0  0
   11.8364    0.1564   24.3117 C   0  0  0  0  0  0  0  0  0  0  0  0
   10.8172   -0.7012   23.8896 C   0  0  0  0  0  0  0  0  0  0  0  0
    6.5521   -0.6918   19.7445 C   0  0  0  0  0  0  0  0  0  0  0  0
    5.5681   -1.5427   18.9284 C   0  0  0  0  0  0  0  0  0  0  0  0
    5.2286   -0.3369   18.0673 C   0  0  0  0  0  0  0  0  0  0  0  0
    6.1649    0.5275   18.8969 C   0  0  0  0  0  0  0  0  0  0  0  0
  1  2  3  0
  2  3  1  0
  3  4  1  0
  4  5  1  0
  4 16  1  0
  5  6  2  0
  5  7  1  0
  7  8  1  0
  8  9  1  0
  9 10  1  0
 10 11  2  0
 11 12  1  0
 12 13  2  0
 13 14  1  0
 14 15  2  0
 15 10  1  0
 16 17  1  0
 17 18  1  0
 18 19  1  0
 19 16  1  0
M  END
>  <Hit>  (431) 
Mpro-x0072_0

>  <Receptor>  (431) 
Mpro-x0387_0

>  <SCORE>  (431) 
-10.0777

>  <SCORE.norm>  (431) 
-0.53040500000000002

>  <SCORE.heavy>  (431) 
19

>  <OrigSmiles>  (431) 
C#CCN(C(=O)COCc1ccccc1)C1CCC1

>  <SuCOS_Score>  (431) 
0.42133274764236717

>  <Max_SuCOS_Score>  (431) 
0.45935504276497718

>  <Cum_SuCOS_Score>  (431) 
5.9278777097348332

>  <TransFSScore_50nM>  (431) 
0.056240999999999999

>  <TransFSScore_1uM>  (431) 
0.64191500000000001

>  <TransFSScore_10nM>  (431) 
0.057147999999999997

>  <TransFSScore_200nM>  (431) 
0.112285

>  <TransFSScore>  (431) 
0.21689724999999999

>  <FeatureSteinScore>  (431) 
0.54797102664022623

$$$$
C#CCN(C(=O)N(CC(=O)O)Cc1ccccc1)C1CCC1
     RDKit          3D

 22 23  0  0  0  0  0  0  0  0999 V2000
    5.0376    0.1257   18.3920 C   0  0  0  0  0  0  0  0  0  0  0  0
    5.3074   -0.8646   19.0261 C   0  0  0  0  0  0  0  0  0  0  0  0
    5.6037   -2.0883   19.7885 C   0  0  0  0  0  0  0  0  0  0  0  0
    5.8328   -1.8957   21.2489 N   0  0  0  0  0  0  0  0  0  0  0  0
    6.7403   -0.7949   21.5654 C   0  0  0  0  0  0  0  0  0  0  0  0
    6.2671    0.2534   21.9890 O   0  0  0  0  0  0  0  0  0  0  0  0
    8.1881   -0.9306   21.4587 N   0  0  0  0  0  0  0  0  0  0  0  0
    8.7691    0.0664   20.5172 C   0  0  0  0  0  0  0  0  0  0  0  0
    8.8164    1.4782   21.0429 C   0  0  0  0  0  0  0  0  0  0  0  0
    7.7847    2.1999   21.0155 O   0  0  0  0  0  0  0  0  0  0  0  0
   10.0046    2.0065   21.5291 O   0  0  0  0  0  0  0  0  0  0  0  0
    8.8083   -0.8946   22.8077 C   0  0  0  0  0  0  0  0  0  0  0  0
   10.3202   -0.8652   22.7519 C   0  0  0  0  0  0  0  0  0  0  0  0
   11.0156   -1.7646   21.9272 C   0  0  0  0  0  0  0  0  0  0  0  0
   12.4108   -1.7500   21.8870 C   0  0  0  0  0  0  0  0  0  0  0  0
   13.1235   -0.8441   22.6747 C   0  0  0  0  0  0  0  0  0  0  0  0
   12.4416    0.0464   23.5065 C   0  0  0  0  0  0  0  0  0  0  0  0
   11.0457    0.0334   23.5511 C   0  0  0  0  0  0  0  0  0  0  0  0
    6.0844   -3.0966   22.1020 C   0  0  0  0  0  0  0  0  0  0  0  0
    4.9811   -4.1592   22.0260 C   0  0  0  0  0  0  0  0  0  0  0  0
    5.9945   -5.1736   21.5139 C   0  0  0  0  0  0  0  0  0  0  0  0
    7.1035   -4.1343   21.6167 C   0  0  0  0  0  0  0  0  0  0  0  0
  1  2  3  0
  2  3  1  0
  3  4  1  0
  4  5  1  0
  4 19  1  0
  5  6  2  0
  5  7  1  0
  7  8  1  0
  7 12  1  0
  8  9  1  0
  9 10  2  0
  9 11  1  0
 12 13  1  0
 13 14  2  0
 14 15  1  0
 15 16  2  0
 16 17  1  0
 17 18  2  0
 18 13  1  0
 19 20  1  0
 20 21  1  0
 21 22  1  0
 22 19  1  0
M  END
>  <Hit>  (432) 
Mpro-x0072_0

>  <Receptor>  (432) 
Mpro-x0387_0

>  <SCORE>  (432) 
-10.0062

>  <SCORE.norm>  (432) 
-0.45482499999999998

>  <SCORE.heavy>  (432) 
22

>  <OrigSmiles>  (432) 
C#CCN(C(=O)N(CC(=O)O)Cc1ccccc1)C1CCC1

>  <SuCOS_Score>  (432) 
0.35248987129346931

>  <Max_SuCOS_Score>  (432) 
0.49238959165113005

>  <Cum_SuCOS_Score>  (432) 
5.8773729337661447

>  <TransFSScore_50nM>  (432) 
0.083802000000000001

>  <TransFSScore_1uM>  (432) 
0.45968300000000001

>  <TransFSScore_10nM>  (432) 
0.075605000000000006

>  <TransFSScore_200nM>  (432) 
0.46002399999999999

>  <TransFSScore>  (432) 
0.26977850000000003

>  <FeatureSteinScore>  (432) 
0.3333777293523828

$$$$
C#CCN(C(=O)NCc1ccccc1)C1CCC1
     RDKit          3D

 18 19  0  0  0  0  0  0  0  0999 V2000
    5.7967    1.9163   16.8160 C   0  0  0  0  0  0  0  0  0  0  0  0
    6.3753    1.0938   17.4808 C   0  0  0  0  0  0  0  0  0  0  0  0
    7.0822    0.0881   18.2930 C   0  0  0  0  0  0  0  0  0  0  0  0
    7.5602    0.6527   19.5773 N   0  0  0  0  0  0  0  0  0  0  0  0
    8.1974   -0.3864   20.3693 C   0  0  0  0  0  0  0  0  0  0  0  0
    7.6393   -1.5090   20.5216 O   0  0  0  0  0  0  0  0  0  0  0  0
    9.4817   -0.1487   20.9692 N   0  0  0  0  0  0  0  0  0  0  0  0
   10.1834   -1.1667   21.7472 C   0  0  0  0  0  0  0  0  0  0  0  0
   11.5493   -0.6731   22.1376 C   0  0  0  0  0  0  0  0  0  0  0  0
   12.6986   -1.2172   21.5441 C   0  0  0  0  0  0  0  0  0  0  0  0
   13.9643   -0.7562   21.9118 C   0  0  0  0  0  0  0  0  0  0  0  0
   14.0905    0.2534   22.8686 C   0  0  0  0  0  0  0  0  0  0  0  0
   12.9504    0.8057   23.4577 C   0  0  0  0  0  0  0  0  0  0  0  0
   11.6823    0.3456   23.0940 C   0  0  0  0  0  0  0  0  0  0  0  0
    6.4768    1.3942   20.2908 C   0  0  0  0  0  0  0  0  0  0  0  0
    6.9066    2.0760   21.5947 C   0  0  0  0  0  0  0  0  0  0  0  0
    5.9228    1.2055   22.3682 C   0  0  0  0  0  0  0  0  0  0  0  0
    5.4673    0.5449   21.0721 C   0  0  0  0  0  0  0  0  0  0  0  0
  1  2  3  0
  2  3  1  0
  3  4  1  0
  4  5  1  0
  4 15  1  0
  5  6  2  0
  5  7  1  0
  7  8  1  0
  8  9  1  0
  9 10  2  0
 10 11  1  0
 11 12  2  0
 12 13  1  0
 13 14  2  0
 14  9  1  0
 15 16  1  0
 16 17  1  0
 17 18  1  0
 18 15  1  0
M  END
>  <Hit>  (433) 
Mpro-x0072_0

>  <Receptor>  (433) 
Mpro-x1249_0

>  <SCORE>  (433) 
-12.442399999999999

>  <SCORE.norm>  (433) 
-0.69124300000000005

>  <SCORE.heavy>  (433) 
18

>  <OrigSmiles>  (433) 
C#CCN(C(=O)NCc1ccccc1)C1CCC1

>  <SuCOS_Score>  (433) 
0.25350677776768438

>  <Max_SuCOS_Score>  (433) 
0.42737345563236195

>  <Cum_SuCOS_Score>  (433) 
5.1431727706011587

>  <TransFSScore_50nM>  (433) 
0.001792

>  <TransFSScore_1uM>  (433) 
0.22620100000000001

>  <TransFSScore_10nM>  (433) 
0.0090930000000000004

>  <TransFSScore_200nM>  (433) 
0.056391999999999998

>  <TransFSScore>  (433) 
0.073369500000000004

>  <FeatureSteinScore>  (433) 
0.24980043837029961

$$$$
C#CCN(C(=O)[C@H](N)[C@H](C)OCc1ccccc1)C1CCC1
     RDKit          3D

 22 23  0  0  0  0  0  0  0  0999 V2000
    4.2927    1.1005   18.9835 C   0  0  0  0  0  0  0  0  0  0  0  0
    4.7286   -0.0114   19.1462 C   0  0  0  0  0  0  0  0  0  0  0  0
    5.2606   -1.3707   19.3425 C   0  0  0  0  0  0  0  0  0  0  0  0
    5.9435   -1.4988   20.6583 N   0  0  0  0  0  0  0  0  0  0  0  0
    7.1195   -0.6425   20.6833 C   0  0  0  0  0  0  0  0  0  0  0  0
    8.1446   -0.9927   20.1114 O   0  0  0  0  0  0  0  0  0  0  0  0
    7.0830    0.7209   21.3598 C   0  0  2  0  0  0  0  0  0  0  0  0
    7.7445    1.7148   20.5014 N   0  0  0  0  0  0  0  0  0  0  0  0
    7.7482    0.6858   22.7602 C   0  0  2  0  0  0  0  0  0  0  0  0
    7.3973    1.9323   23.5810 C   0  0  0  0  0  0  0  0  0  0  0  0
    9.1569    0.6494   22.5915 O   0  0  0  0  0  0  0  0  0  0  0  0
    9.6367   -0.6779   22.6168 C   0  0  0  0  0  0  0  0  0  0  0  0
   11.1367   -0.6483   22.6354 C   0  0  0  0  0  0  0  0  0  0  0  0
   11.8693   -1.4396   21.7377 C   0  0  0  0  0  0  0  0  0  0  0  0
   13.2653   -1.4376   21.7774 C   0  0  0  0  0  0  0  0  0  0  0  0
   13.9374   -0.6551   22.7192 C   0  0  0  0  0  0  0  0  0  0  0  0
   13.2141    0.1239   23.6258 C   0  0  0  0  0  0  0  0  0  0  0  0
   11.8173    0.1229   23.5907 C   0  0  0  0  0  0  0  0  0  0  0  0
    6.3196   -2.8883   21.0555 C   0  0  0  0  0  0  0  0  0  0  0  0
    7.0543   -2.9846   22.3953 C   0  0  0  0  0  0  0  0  0  0  0  0
    5.9300   -3.8568   22.9440 C   0  0  0  0  0  0  0  0  0  0  0  0
    5.1998   -3.7803   21.6074 C   0  0  0  0  0  0  0  0  0  0  0  0
  1  2  3  0
  2  3  1  0
  3  4  1  0
  4  5  1  0
  4 19  1  0
  5  6  2  0
  5  7  1  0
  7  8  1  6
  7  9  1  0
  9 10  1  1
  9 11  1  0
 11 12  1  0
 12 13  1  0
 13 14  2  0
 14 15  1  0
 15 16  2  0
 16 17  1  0
 17 18  2  0
 18 13  1  0
 19 20  1  0
 20 21  1  0
 21 22  1  0
 22 19  1  0
M  END
>  <Hit>  (434) 
Mpro-x0072_0

>  <Receptor>  (434) 
Mpro-x0387_0

>  <SCORE>  (434) 
-11.9275

>  <SCORE.norm>  (434) 
-0.54215999999999998

>  <SCORE.heavy>  (434) 
22

>  <OrigSmiles>  (434) 
C#CCN(C(=O)[C@H](N)[C@H](C)OCc1ccccc1)C1CCC1

>  <SuCOS_Score>  (434) 
0.34534051826198886

>  <Max_SuCOS_Score>  (434) 
0.52210296657113275

>  <Cum_SuCOS_Score>  (434) 
5.801939108961859

>  <TransFSScore_50nM>  (434) 
0.46405999999999997

>  <TransFSScore_1uM>  (434) 
0.59109999999999996

>  <TransFSScore_10nM>  (434) 
0.72763199999999995

>  <TransFSScore_200nM>  (434) 
0.88976

>  <TransFSScore>  (434) 
0.6681379999999999

>  <FeatureSteinScore>  (434) 
0.32554518150233469

$$$$
C#CCN(C(=O)[C@H]1[C@@H]2C[C@H]1CN2)C(C)C
     RDKit          3D

 15 16  0  0  0  0  0  0  0  0999 V2000
    8.4798   -4.3971   23.3913 C   0  0  0  0  0  0  0  0  0  0  0  0
    8.9896   -4.2257   24.4704 C   0  0  0  0  0  0  0  0  0  0  0  0
    9.6078   -4.0169   25.7961 C   0  0  0  0  0  0  0  0  0  0  0  0
    8.6570   -3.6003   26.8569 N   0  0  0  0  0  0  0  0  0  0  0  0
    8.1891   -2.2245   26.7145 C   0  0  0  0  0  0  0  0  0  0  0  0
    7.4223   -1.9189   25.8124 O   0  0  0  0  0  0  0  0  0  0  0  0
    8.5230   -1.1911   27.7812 C   0  0  1  0  0  0  0  0  0  0  0  0
    9.8263   -0.3974   27.6397 C   0  0  2  0  0  0  0  0  0  0  0  0
    9.1700    0.7093   28.4634 C   0  0  0  0  0  0  0  0  0  0  0  0
    7.9509    0.2260   27.6833 C   0  0  1  0  0  0  0  0  0  0  0  0
    8.3955    0.6599   26.2796 C   0  0  0  0  0  0  0  0  0  0  0  0
    9.7862    0.1640   26.2786 N   0  0  0  0  0  0  0  0  0  0  0  0
    7.5658   -4.5926   27.1099 C   0  0  0  0  0  0  0  0  0  0  0  0
    8.1250   -5.9379   27.6109 C   0  0  0  0  0  0  0  0  0  0  0  0
    6.4519   -4.0999   28.0562 C   0  0  0  0  0  0  0  0  0  0  0  0
  1  2  3  0
  2  3  1  0
  3  4  1  0
  4  5  1  0
  4 13  1  0
  5  6  2  0
  7  5  1  6
  7  8  1  0
  8  9  1  1
 10  9  1  1
 10 11  1  0
 10  7  1  0
 11 12  1  0
 12  8  1  0
 13 14  1  0
 13 15  1  0
M  END
>  <Hit>  (435) 
Mpro-x0991_0

>  <Receptor>  (435) 
Mpro-x0305_0

>  <SCORE>  (435) 
-2.9643199999999998

>  <SCORE.norm>  (435) 
-0.19762099999999999

>  <SCORE.heavy>  (435) 
15

>  <OrigSmiles>  (435) 
C#CCN(C(=O)[C@H]1[C@@H]2C[C@H]1CN2)C(C)C

>  <SuCOS_Score>  (435) 
0.40222447222659924

>  <Max_SuCOS_Score>  (435) 
0.40222447222659924

>  <Cum_SuCOS_Score>  (435) 
1.9275912159008664

>  <TransFSScore_50nM>  (435) 
0.013805

>  <TransFSScore_1uM>  (435) 
0.18252499999999999

>  <TransFSScore_10nM>  (435) 
0.035429000000000002

>  <TransFSScore_200nM>  (435) 
0.22975499999999999

>  <TransFSScore>  (435) 
0.11537849999999999

>  <FeatureSteinScore>  (435) 
0.43439151975423396

$$$$
C#CCN(C(=O)c1ccc(O)nc1)C1CCCCC1
     RDKit          3D

 19 20  0  0  0  0  0  0  0  0999 V2000
    8.7767   -0.0422   28.9609 C   0  0  0  0  0  0  0  0  0  0  0  0
    9.5962   -0.3787   28.1435 C   0  0  0  0  0  0  0  0  0  0  0  0
   10.6003   -0.7890   27.1454 C   0  0  0  0  0  0  0  0  0  0  0  0
    9.9944   -0.9829   25.7960 N   0  0  0  0  0  0  0  0  0  0  0  0
    8.9423   -1.9897   25.8683 C   0  0  0  0  0  0  0  0  0  0  0  0
    7.7413   -1.6018   25.9204 O   0  0  0  0  0  0  0  0  0  0  0  0
    9.1981   -3.4603   25.8719 C   0  0  0  0  0  0  0  0  0  0  0  0
    8.1321   -4.3393   26.1240 C   0  0  0  0  0  0  0  0  0  0  0  0
    8.3396   -5.7181   26.1357 C   0  0  0  0  0  0  0  0  0  0  0  0
    9.6227   -6.2209   25.9042 C   0  0  0  0  0  0  0  0  0  0  0  0
    9.8556   -7.5948   25.9094 O   0  0  0  0  0  0  0  0  0  0  0  0
   10.6534   -5.3635   25.6745 N   0  0  0  0  0  0  0  0  0  0  0  0
   10.4734   -4.0141   25.6580 C   0  0  0  0  0  0  0  0  0  0  0  0
   10.9970   -1.2729   24.7210 C   0  0  0  0  0  0  0  0  0  0  0  0
   10.2987   -1.7054   23.4035 C   0  0  0  0  0  0  0  0  0  0  0  0
   11.3146   -2.0020   22.2952 C   0  0  0  0  0  0  0  0  0  0  0  0
   12.2447   -0.8113   22.0475 C   0  0  0  0  0  0  0  0  0  0  0  0
   12.9176   -0.3526   23.3413 C   0  0  0  0  0  0  0  0  0  0  0  0
   11.8727   -0.0322   24.4122 C   0  0  0  0  0  0  0  0  0  0  0  0
  1  2  3  0
  2  3  1  0
  3  4  1  0
  4  5  1  0
  4 14  1  0
  5  6  2  0
  5  7  1  0
  7  8  2  0
  8  9  1  0
  9 10  2  0
 10 11  1  0
 10 12  1  0
 12 13  2  0
 13  7  1  0
 14 15  1  0
 15 16  1  0
 16 17  1  0
 17 18  1  0
 18 19  1  0
 19 14  1  0
M  END
>  <Hit>  (436) 
Mpro-x0678_0

>  <Receptor>  (436) 
Mpro-x0387_0

>  <SCORE>  (436) 
-13.2936

>  <SCORE.norm>  (436) 
-0.69966200000000001

>  <SCORE.heavy>  (436) 
19

>  <OrigSmiles>  (436) 
C#CCN(C(=O)c1ccc(O)nc1)C1CCCCC1

>  <SuCOS_Score>  (436) 
0.16378790921871861

>  <Max_SuCOS_Score>  (436) 
0.39257898181363121

>  <Cum_SuCOS_Score>  (436) 
4.1675990131530156

>  <TransFSScore_50nM>  (436) 
0.020622999999999999

>  <TransFSScore_1uM>  (436) 
0.24809600000000001

>  <TransFSScore_10nM>  (436) 
0.026551999999999999

>  <TransFSScore_200nM>  (436) 
0.066480999999999998

>  <TransFSScore>  (436) 
0.090438000000000004

>  <FeatureSteinScore>  (436) 
0.42143363652553451

$$$$
C#CCN(C)C(=O)C12CCC(CC1)N2
     RDKit          3D

 14 15  0  0  0  0  0  0  0  0999 V2000
    8.4728   -5.6652   23.5935 C   0  0  0  0  0  0  0  0  0  0  0  0
    9.1770   -5.4693   24.5520 C   0  0  0  0  0  0  0  0  0  0  0  0
   10.0425   -5.2303   25.7266 C   0  0  0  0  0  0  0  0  0  0  0  0
    9.3011   -4.8041   26.9319 N   0  0  0  0  0  0  0  0  0  0  0  0
    8.3707   -5.8385   27.4186 C   0  0  0  0  0  0  0  0  0  0  0  0
    8.6091   -3.5433   26.7246 C   0  0  0  0  0  0  0  0  0  0  0  0
    7.6660   -3.4797   25.9461 O   0  0  0  0  0  0  0  0  0  0  0  0
    9.0235   -2.3027   27.4912 C   0  0  1  0  0  0  0  0  0  0  0  0
    9.6752   -1.2270   26.6032 C   0  0  0  0  0  0  0  0  0  0  0  0
   10.4616   -0.4192   27.6440 C   0  0  0  0  0  0  0  0  0  0  0  0
   10.1206   -1.1761   28.9359 C   0  0  1  0  0  0  0  0  0  0  0  0
    8.6689   -0.8446   29.3325 C   0  0  0  0  0  0  0  0  0  0  0  0
    7.8794   -1.6572   28.3017 C   0  0  0  0  0  0  0  0  0  0  0  0
   10.0589   -2.5546   28.4827 N   0  0  0  0  0  0  0  0  0  0  0  0
  1  2  3  0
  2  3  1  0
  3  4  1  0
  4  5  1  0
  4  6  1  0
  6  7  2  0
  8  6  1  6
  8  9  1  0
  9 10  1  0
 11 10  1  6
 11 12  1  0
 11 14  1  0
 12 13  1  0
 13  8  1  0
 14  8  1  0
M  END
>  <Hit>  (437) 
Mpro-x0991_0

>  <Receptor>  (437) 
Mpro-x0387_0

>  <SCORE>  (437) 
-1.28311

>  <SCORE.norm>  (437) 
-0.091650400000000007

>  <SCORE.heavy>  (437) 
14

>  <OrigSmiles>  (437) 
C#CCN(C)C(=O)C12CCC(CC1)N2

>  <SuCOS_Score>  (437) 
0.42316045667133956

>  <Max_SuCOS_Score>  (437) 
0.42316045667133956

>  <Cum_SuCOS_Score>  (437) 
1.6958439716605049

>  <TransFSScore_50nM>  (437) 
0.020003

>  <TransFSScore_1uM>  (437) 
0.38903599999999999

>  <TransFSScore_10nM>  (437) 
0.023713000000000001

>  <TransFSScore_200nM>  (437) 
0.059005000000000002

>  <TransFSScore>  (437) 
0.12293925

>  <FeatureSteinScore>  (437) 
0.28556907860428249

$$$$
C#CCN(C)C(=O)C1CC2CCC1N2
     RDKit          3D

 14 15  0  0  0  0  0  0  0  0999 V2000
    8.5377   -4.7220   23.3645 C   0  0  0  0  0  0  0  0  0  0  0  0
    9.0726   -4.4894   24.4195 C   0  0  0  0  0  0  0  0  0  0  0  0
    9.7278   -4.2053   25.7115 C   0  0  0  0  0  0  0  0  0  0  0  0
    8.7507   -3.8645   26.7648 N   0  0  0  0  0  0  0  0  0  0  0  0
    8.0464   -5.0599   27.2640 C   0  0  0  0  0  0  0  0  0  0  0  0
    9.4292   -3.2076   27.8673 C   0  0  0  0  0  0  0  0  0  0  0  0
   10.3094   -3.8009   28.4788 O   0  0  0  0  0  0  0  0  0  0  0  0
    9.0618   -1.7881   28.2691 C   0  0  1  0  0  0  0  0  0  0  0  0
   10.0845   -1.1457   29.2289 C   0  0  0  0  0  0  0  0  0  0  0  0
   10.4792    0.1226   28.4464 C   0  0  2  0  0  0  0  0  0  0  0  0
    9.2946    1.1093   28.4848 C   0  0  0  0  0  0  0  0  0  0  0  0
    8.3262    0.4635   27.4814 C   0  0  0  0  0  0  0  0  0  0  0  0
    9.1110   -0.7995   27.0755 C   0  0  1  0  0  0  0  0  0  0  0  0
   10.4891   -0.3281   27.0650 N   0  0  0  0  0  0  0  0  0  0  0  0
  1  2  3  0
  2  3  1  0
  3  4  1  0
  4  5  1  0
  4  6  1  0
  6  7  2  0
  8  6  1  6
  8  9  1  0
 10  9  1  1
 10 11  1  0
 11 12  1  0
 13 12  1  1
 13 14  1  0
 13  8  1  0
 14 10  1  0
M  END
>  <Hit>  (438) 
Mpro-x0991_0

>  <Receptor>  (438) 
Mpro-x0387_0

>  <SCORE>  (438) 
-4.4906899999999998

>  <SCORE.norm>  (438) 
-0.32076399999999999

>  <SCORE.heavy>  (438) 
14

>  <OrigSmiles>  (438) 
C#CCN(C)C(=O)C1CC2CCC1N2

>  <SuCOS_Score>  (438) 
0.41844885318266961

>  <Max_SuCOS_Score>  (438) 
0.41844885318266961

>  <Cum_SuCOS_Score>  (438) 
1.5837566650069441

>  <TransFSScore_50nM>  (438) 
0.063761999999999999

>  <TransFSScore_1uM>  (438) 
0.201989

>  <TransFSScore_10nM>  (438) 
0.010532

>  <TransFSScore_200nM>  (438) 
0.15407599999999999

>  <TransFSScore>  (438) 
0.10758975

>  <FeatureSteinScore>  (438) 
0.28352910060016717

$$$$
C#CCN(C)C(=O)CC12CCC(CC1)N2
     RDKit          3D

 15 16  0  0  0  0  0  0  0  0999 V2000
   10.4581   -5.6872   25.7869 C   0  0  0  0  0  0  0  0  0  0  0  0
    9.3612   -5.4006   26.1969 C   0  0  0  0  0  0  0  0  0  0  0  0
    8.0299   -5.0442   26.7010 C   0  0  0  0  0  0  0  0  0  0  0  0
    7.4013   -4.0591   25.8092 N   0  0  0  0  0  0  0  0  0  0  0  0
    6.6857   -2.9114   26.3797 C   0  0  0  0  0  0  0  0  0  0  0  0
    7.4414   -4.2716   24.3830 C   0  0  0  0  0  0  0  0  0  0  0  0
    7.7037   -5.4183   23.9268 O   0  0  0  0  0  0  0  0  0  0  0  0
    7.2350   -3.1398   23.4093 C   0  0  0  0  0  0  0  0  0  0  0  0
    8.5080   -2.2881   23.1937 C   0  0  2  0  0  0  0  0  0  0  0  0
    8.8563   -1.3122   24.3434 C   0  0  0  0  0  0  0  0  0  0  0  0
   10.3467   -1.0565   24.0771 C   0  0  0  0  0  0  0  0  0  0  0  0
   10.5899   -1.9244   22.8269 C   0  0  2  0  0  0  0  0  0  0  0  0
    9.9466   -1.2148   21.6219 C   0  0  0  0  0  0  0  0  0  0  0  0
    8.4558   -1.4687   21.8818 C   0  0  0  0  0  0  0  0  0  0  0  0
    9.7259   -3.0754   23.0417 N   0  0  0  0  0  0  0  0  0  0  0  0
  1  2  3  0
  2  3  1  0
  3  4  1  0
  4  5  1  0
  4  6  1  0
  6  7  2  0
  6  8  1  0
  9  8  1  1
  9 10  1  0
 10 11  1  0
 12 11  1  1
 12 13  1  0
 12 15  1  0
 13 14  1  0
 14  9  1  0
 15  9  1  0
M  END
>  <Hit>  (439) 
Mpro-x0991_0

>  <Receptor>  (439) 
Mpro-x1249_0

>  <SCORE>  (439) 
-4.4710099999999997

>  <SCORE.norm>  (439) 
-0.29806700000000003

>  <SCORE.heavy>  (439) 
15

>  <OrigSmiles>  (439) 
C#CCN(C)C(=O)CC12CCC(CC1)N2

>  <SuCOS_Score>  (439) 
0.48247621282503328

>  <Max_SuCOS_Score>  (439) 
0.48247621282503328

>  <Cum_SuCOS_Score>  (439) 
3.3481162685902945

>  <TransFSScore_50nM>  (439) 
0.014874999999999999

>  <TransFSScore_1uM>  (439) 
0.200125

>  <TransFSScore_10nM>  (439) 
0.016160999999999998

>  <TransFSScore_200nM>  (439) 
0.174317

>  <TransFSScore>  (439) 
0.1013695

>  <FeatureSteinScore>  (439) 
0.35207253400150701

$$$$
C#CCN(C)C(=O)[C@@H]1C[C@@H]2CC[C@H]1N2
     RDKit          3D

 14 15  0  0  0  0  0  0  0  0999 V2000
    8.3184   -5.6915   23.5613 C   0  0  0  0  0  0  0  0  0  0  0  0
    9.1861   -5.5262   24.3815 C   0  0  0  0  0  0  0  0  0  0  0  0
   10.2482   -5.3250   25.3866 C   0  0  0  0  0  0  0  0  0  0  0  0
    9.7723   -4.5422   26.5445 N   0  0  0  0  0  0  0  0  0  0  0  0
    8.7725   -5.2998   27.3260 C   0  0  0  0  0  0  0  0  0  0  0  0
    9.2109   -3.2840   26.0755 C   0  0  0  0  0  0  0  0  0  0  0  0
    8.0530   -3.2480   25.6780 O   0  0  0  0  0  0  0  0  0  0  0  0
   10.0198   -1.9938   25.9884 C   0  0  2  0  0  0  0  0  0  0  0  0
    9.2985   -0.6896   25.5736 C   0  0  0  0  0  0  0  0  0  0  0  0
   10.2091   -0.1960   24.4307 C   0  0  2  0  0  0  0  0  0  0  0  0
    9.9301   -1.0600   23.1875 C   0  0  0  0  0  0  0  0  0  0  0  0
   10.6440   -2.3661   23.5605 C   0  0  0  0  0  0  0  0  0  0  0  0
   11.1826   -2.0313   24.9673 C   0  0  1  0  0  0  0  0  0  0  0  0
   11.5377   -0.6256   24.8431 N   0  0  0  0  0  0  0  0  0  0  0  0
  1  2  3  0
  2  3  1  0
  3  4  1  0
  4  5  1  0
  4  6  1  0
  6  7  2  0
  8  6  1  6
  8  9  1  0
 10  9  1  1
 10 11  1  0
 11 12  1  0
 13 12  1  6
 13 14  1  0
 13  8  1  0
 14 10  1  0
M  END
>  <Hit>  (440) 
Mpro-x0991_0

>  <Receptor>  (440) 
Mpro-x0387_0

>  <SCORE>  (440) 
-3.2116600000000002

>  <SCORE.norm>  (440) 
-0.229405

>  <SCORE.heavy>  (440) 
14

>  <OrigSmiles>  (440) 
C#CCN(C)C(=O)[C@@H]1C[C@@H]2CC[C@H]1N2

>  <SuCOS_Score>  (440) 
0.43293250962301194

>  <Max_SuCOS_Score>  (440) 
0.43293250962301194

>  <Cum_SuCOS_Score>  (440) 
3.3967683600929655

>  <TransFSScore_50nM>  (440) 
0.046364000000000002

>  <TransFSScore_1uM>  (440) 
0.40148699999999998

>  <TransFSScore_10nM>  (440) 
0.039983999999999999

>  <TransFSScore_200nM>  (440) 
0.408632

>  <TransFSScore>  (440) 
0.22411675

>  <FeatureSteinScore>  (440) 
0.22891084129512984

$$$$
C#CCN(C)C(=O)c1cc(Cl)cc(Br)c1
     RDKit          3D

 15 15  0  0  0  0  0  0  0  0999 V2000
    8.0484    5.0145   22.7053 C   0  0  0  0  0  0  0  0  0  0  0  0
    9.0720    5.5125   23.1026 C   0  0  0  0  0  0  0  0  0  0  0  0
   10.3257    6.1238   23.5863 C   0  0  0  0  0  0  0  0  0  0  0  0
   11.2511    5.1588   24.2284 N   0  0  0  0  0  0  0  0  0  0  0  0
   12.3642    5.8219   24.9305 C   0  0  0  0  0  0  0  0  0  0  0  0
   11.7587    4.1778   23.2860 C   0  0  0  0  0  0  0  0  0  0  0  0
   12.3137    4.5615   22.2182 O   0  0  0  0  0  0  0  0  0  0  0  0
   11.6668    2.7181   23.5516 C   0  0  0  0  0  0  0  0  0  0  0  0
   10.8516    2.2102   24.5806 C   0  0  0  0  0  0  0  0  0  0  0  0
   10.7947    0.8318   24.8188 C   0  0  0  0  0  0  0  0  0  0  0  0
    9.7824    0.2076   26.1084 Cl  0  0  0  0  0  0  0  0  0  0  0  0
   11.5472   -0.0503   24.0343 C   0  0  0  0  0  0  0  0  0  0  0  0
   12.3610    0.4458   23.0103 C   0  0  0  0  0  0  0  0  0  0  0  0
   13.3727   -0.7491   21.9012 Br  0  0  0  0  0  0  0  0  0  0  0  0
   12.4268    1.8227   22.7774 C   0  0  0  0  0  0  0  0  0  0  0  0
  1  2  3  0
  2  3  1  0
  3  4  1  0
  4  5  1  0
  4  6  1  0
  6  7  2  0
  6  8  1  0
  8  9  2  0
  9 10  1  0
 10 11  1  0
 10 12  2  0
 12 13  1  0
 13 14  1  0
 13 15  2  0
 15  8  1  0
M  END
>  <Hit>  (441) 
Mpro-x0946_0

>  <Receptor>  (441) 
Mpro-x1249_0

>  <SCORE>  (441) 
-10.0951

>  <SCORE.norm>  (441) 
-0.67300599999999999

>  <SCORE.heavy>  (441) 
15

>  <OrigSmiles>  (441) 
C#CCN(C)C(=O)c1cc(Cl)cc(Br)c1

>  <SuCOS_Score>  (441) 
0.53831197989504498

>  <Max_SuCOS_Score>  (441) 
0.55648064483011084

>  <Cum_SuCOS_Score>  (441) 
4.0888402693689923

>  <TransFSScore_50nM>  (441) 
0.010489

>  <TransFSScore_1uM>  (441) 
0.070013000000000006

>  <TransFSScore_10nM>  (441) 
0.0083580000000000008

>  <TransFSScore_200nM>  (441) 
0.033680000000000002

>  <TransFSScore>  (441) 
0.030635000000000003

>  <FeatureSteinScore>  (441) 
0.46434842374584273

$$$$
C#CCN(C)C(=O)c1ccc(Br)cc1Cl
     RDKit          3D

 15 15  0  0  0  0  0  0  0  0999 V2000
   12.9648    7.0002   26.1289 C   0  0  0  0  0  0  0  0  0  0  0  0
   12.8929    6.0972   25.3336 C   0  0  0  0  0  0  0  0  0  0  0  0
   12.8050    4.9941   24.3617 C   0  0  0  0  0  0  0  0  0  0  0  0
   11.9555    5.3532   23.2036 N   0  0  0  0  0  0  0  0  0  0  0  0
   12.7562    5.5995   21.9903 C   0  0  0  0  0  0  0  0  0  0  0  0
   10.9583    4.3288   22.9555 C   0  0  0  0  0  0  0  0  0  0  0  0
    9.7511    4.6620   22.8047 O   0  0  0  0  0  0  0  0  0  0  0  0
   11.3022    2.8904   22.8797 C   0  0  0  0  0  0  0  0  0  0  0  0
   12.6400    2.4803   22.9906 C   0  0  0  0  0  0  0  0  0  0  0  0
   12.9758    1.1265   22.9071 C   0  0  0  0  0  0  0  0  0  0  0  0
   11.9829    0.1671   22.6964 C   0  0  0  0  0  0  0  0  0  0  0  0
   12.4717   -1.6813   22.5372 Br  0  0  0  0  0  0  0  0  0  0  0  0
   10.6464    0.5635   22.5752 C   0  0  0  0  0  0  0  0  0  0  0  0
   10.3021    1.9202   22.6589 C   0  0  0  0  0  0  0  0  0  0  0  0
    8.6097    2.3693   22.4766 Cl  0  0  0  0  0  0  0  0  0  0  0  0
  1  2  3  0
  2  3  1  0
  3  4  1  0
  4  5  1  0
  4  6  1  0
  6  7  2  0
  6  8  1  0
  8  9  2  0
  9 10  1  0
 10 11  2  0
 11 12  1  0
 11 13  1  0
 13 14  2  0
 14 15  1  0
 14  8  1  0
M  END
>  <Hit>  (442) 
Mpro-x0946_0

>  <Receptor>  (442) 
Mpro-x0305_0

>  <SCORE>  (442) 
-10.9384

>  <SCORE.norm>  (442) 
-0.72922399999999998

>  <SCORE.heavy>  (442) 
15

>  <OrigSmiles>  (442) 
C#CCN(C)C(=O)c1ccc(Br)cc1Cl

>  <SuCOS_Score>  (442) 
0.44473412163065745

>  <Max_SuCOS_Score>  (442) 
0.48247146398965357

>  <Cum_SuCOS_Score>  (442) 
3.8077792791428728

>  <TransFSScore_50nM>  (442) 
0.012748000000000001

>  <TransFSScore_1uM>  (442) 
0.052823000000000002

>  <TransFSScore_10nM>  (442) 
0.017559999999999999

>  <TransFSScore_200nM>  (442) 
0.046580999999999997

>  <TransFSScore>  (442) 
0.032427999999999998

>  <FeatureSteinScore>  (442) 
0.41873736127723565

$$$$
C#CCN(C)C(c1cccnc1)c1ccc(F)cc1F
     RDKit          3D

 20 21  0  0  0  0  0  0  0  0999 V2000
    5.5427    1.1630   20.2603 C   0  0  0  0  0  0  0  0  0  0  0  0
    4.4664    1.6823   20.1026 C   0  0  0  0  0  0  0  0  0  0  0  0
    3.1559    2.3170   19.9082 C   0  0  0  0  0  0  0  0  0  0  0  0
    2.4260    2.2844   21.2047 N   0  0  0  0  0  0  0  0  0  0  0  0
    0.9959    2.0773   20.9037 C   0  0  0  0  0  0  0  0  0  0  0  0
    2.8213    3.3822   22.1460 C   0  0  2  0  0  0  0  0  0  0  0  0
    4.3285    3.3983   22.4305 C   0  0  0  0  0  0  0  0  0  0  0  0
    5.2031    4.2699   21.7543 C   0  0  0  0  0  0  0  0  0  0  0  0
    6.5696    4.2468   22.0314 C   0  0  0  0  0  0  0  0  0  0  0  0
    7.0621    3.3460   22.9751 C   0  0  0  0  0  0  0  0  0  0  0  0
    6.2154    2.4947   23.6133 N   0  0  0  0  0  0  0  0  0  0  0  0
    4.8779    2.4982   23.3609 C   0  0  0  0  0  0  0  0  0  0  0  0
    2.0066    3.4430   23.4524 C   0  0  0  0  0  0  0  0  0  0  0  0
    1.1789    2.3795   23.9019 C   0  0  0  0  0  0  0  0  0  0  0  0
    0.6025    2.4091   25.1760 C   0  0  0  0  0  0  0  0  0  0  0  0
    0.8162    3.4997   26.0149 C   0  0  0  0  0  0  0  0  0  0  0  0
    0.2498    3.5309   27.2465 F   0  0  0  0  0  0  0  0  0  0  0  0
    1.6165    4.5541   25.5890 C   0  0  0  0  0  0  0  0  0  0  0  0
    2.2237    4.5171   24.3376 C   0  0  0  0  0  0  0  0  0  0  0  0
    3.0837    5.5134   24.0371 F   0  0  0  0  0  0  0  0  0  0  0  0
  1  2  3  0
  2  3  1  0
  3  4  1  0
  4  5  1  0
  6  4  1  1
  6  7  1  0
  6 13  1  0
  7  8  2  0
  8  9  1  0
  9 10  2  0
 10 11  1  0
 11 12  2  0
 12  7  1  0
 13 14  2  0
 14 15  1  0
 15 16  2  0
 16 17  1  0
 16 18  1  0
 18 19  2  0
 19 20  1  0
 19 13  1  0
M  END
>  <Hit>  (443) 
Mpro-x0426_0

>  <Receptor>  (443) 
Mpro-x0387_0

>  <SCORE>  (443) 
-1.6373599999999999

>  <SCORE.norm>  (443) 
-0.081868099999999999

>  <SCORE.heavy>  (443) 
20

>  <OrigSmiles>  (443) 
C#CCN(C)C(c1cccnc1)c1ccc(F)cc1F

>  <SuCOS_Score>  (443) 
0.33955638602928478

>  <Max_SuCOS_Score>  (443) 
0.33955638602928478

>  <Cum_SuCOS_Score>  (443) 
1.4652899663384888

>  <TransFSScore_50nM>  (443) 
0.02341

>  <TransFSScore_1uM>  (443) 
0.028323000000000001

>  <TransFSScore_10nM>  (443) 
0.00048999999999999998

>  <TransFSScore_200nM>  (443) 
0.0097900000000000001

>  <TransFSScore>  (443) 
0.01550325

>  <FeatureSteinScore>  (443) 
0.12101950616699381

$$$$
C#CCN(C)CC12CCC(CC1)N2
     RDKit          3D

 13 14  0  0  0  0  0  0  0  0999 V2000
    8.3611   -5.7584   23.4670 C   0  0  0  0  0  0  0  0  0  0  0  0
    8.9896   -5.3850   24.4254 C   0  0  0  0  0  0  0  0  0  0  0  0
    9.7571   -4.9302   25.5968 C   0  0  0  0  0  0  0  0  0  0  0  0
    8.8594   -4.4039   26.6430 N   0  0  0  0  0  0  0  0  0  0  0  0
    8.2013   -5.5123   27.3597 C   0  0  0  0  0  0  0  0  0  0  0  0
    7.8482   -3.4816   26.0703 C   0  0  0  0  0  0  0  0  0  0  0  0
    8.4507   -2.0820   25.7462 C   0  0  1  0  0  0  0  0  0  0  0  0
    7.5141   -1.1656   24.9224 C   0  0  0  0  0  0  0  0  0  0  0  0
    8.5134   -0.1697   24.3268 C   0  0  0  0  0  0  0  0  0  0  0  0
    9.8411   -0.6776   24.9194 C   0  0  1  0  0  0  0  0  0  0  0  0
    9.8893   -0.2977   26.4044 C   0  0  0  0  0  0  0  0  0  0  0  0
    8.8959   -1.3005   27.0036 C   0  0  0  0  0  0  0  0  0  0  0  0
    9.6819   -2.1212   24.9670 N   0  0  0  0  0  0  0  0  0  0  0  0
  1  2  3  0
  2  3  1  0
  3  4  1  0
  4  5  1  0
  4  6  1  0
  7  6  1  1
  7  8  1  0
  8  9  1  0
 10  9  1  1
 10 11  1  0
 10 13  1  0
 11 12  1  0
 12  7  1  0
 13  7  1  0
M  END
>  <Hit>  (444) 
Mpro-x0991_0

>  <Receptor>  (444) 
Mpro-x1249_0

>  <SCORE>  (444) 
-1.9362699999999999

>  <SCORE.norm>  (444) 
-0.14894399999999999

>  <SCORE.heavy>  (444) 
13

>  <OrigSmiles>  (444) 
C#CCN(C)CC12CCC(CC1)N2

>  <SuCOS_Score>  (444) 
0.49601305561745324

>  <Max_SuCOS_Score>  (444) 
0.49601305561745324

>  <Cum_SuCOS_Score>  (444) 
2.6674200659935652

>  <TransFSScore_50nM>  (444) 
0.021212999999999999

>  <TransFSScore_1uM>  (444) 
0.051248000000000002

>  <TransFSScore_10nM>  (444) 
0.0076309999999999998

>  <TransFSScore_200nM>  (444) 
0.059809000000000001

>  <TransFSScore>  (444) 
0.034975249999999999

>  <FeatureSteinScore>  (444) 
0.59338124656883839

$$$$
C#CCN(C)CC1CC2CCC1N2
     RDKit          3D

 13 14  0  0  0  0  0  0  0  0999 V2000
    8.0182   -3.6193   22.6865 C   0  0  0  0  0  0  0  0  0  0  0  0
    8.3440   -4.3089   23.6200 C   0  0  0  0  0  0  0  0  0  0  0  0
    8.7443   -5.1538   24.7619 C   0  0  0  0  0  0  0  0  0  0  0  0
    8.2634   -4.6136   26.0504 N   0  0  0  0  0  0  0  0  0  0  0  0
    8.2020   -5.6831   27.0667 C   0  0  0  0  0  0  0  0  0  0  0  0
    9.0204   -3.4256   26.5339 C   0  0  0  0  0  0  0  0  0  0  0  0
    8.6258   -2.0703   25.8695 C   0  0  1  0  0  0  0  0  0  0  0  0
    7.3803   -1.4073   26.5073 C   0  0  0  0  0  0  0  0  0  0  0  0
    7.9521   -0.0594   26.9840 C   0  0  2  0  0  0  0  0  0  0  0  0
    8.1862    0.8313   25.7495 C   0  0  0  0  0  0  0  0  0  0  0  0
    9.4408    0.1870   25.1450 C   0  0  0  0  0  0  0  0  0  0  0  0
    9.6927   -0.9714   26.1308 C   0  0  1  0  0  0  0  0  0  0  0  0
    9.2982   -0.4020   27.4099 N   0  0  0  0  0  0  0  0  0  0  0  0
  1  2  3  0
  2  3  1  0
  3  4  1  0
  4  5  1  0
  4  6  1  0
  7  6  1  1
  7  8  1  0
  9  8  1  6
  9 10  1  0
 10 11  1  0
 12 11  1  6
 12 13  1  0
 12  7  1  0
 13  9  1  0
M  END
>  <Hit>  (445) 
Mpro-x0991_0

>  <Receptor>  (445) 
Mpro-x1249_0

>  <SCORE>  (445) 
-3.5321199999999999

>  <SCORE.norm>  (445) 
-0.27170100000000003

>  <SCORE.heavy>  (445) 
13

>  <OrigSmiles>  (445) 
C#CCN(C)CC1CC2CCC1N2

>  <SuCOS_Score>  (445) 
0.61968909889476043

>  <Max_SuCOS_Score>  (445) 
0.61968909889476043

>  <Cum_SuCOS_Score>  (445) 
2.3693462524176772

>  <TransFSScore_50nM>  (445) 
0.0079299999999999995

>  <TransFSScore_1uM>  (445) 
0.077911999999999995

>  <TransFSScore_10nM>  (445) 
0.013814

>  <TransFSScore_200nM>  (445) 
0.050063000000000003

>  <TransFSScore>  (445) 
0.037429749999999998

>  <FeatureSteinScore>  (445) 
0.39304507139423833

$$$$
C#CCN(C)CCC12CCC(CC1)N2
     RDKit          3D

 14 15  0  0  0  0  0  0  0  0999 V2000
    9.7279   -0.3175   26.2649 C   0  0  0  0  0  0  0  0  0  0  0  0
    9.3535   -1.3238   26.8134 C   0  0  0  0  0  0  0  0  0  0  0  0
    8.8857   -2.5487   27.4811 C   0  0  0  0  0  0  0  0  0  0  0  0
    8.3214   -3.5337   26.5239 N   0  0  0  0  0  0  0  0  0  0  0  0
    7.6324   -4.5911   27.2900 C   0  0  0  0  0  0  0  0  0  0  0  0
    9.3662   -4.1329   25.6482 C   0  0  0  0  0  0  0  0  0  0  0  0
    8.9258   -4.2371   24.1673 C   0  0  0  0  0  0  0  0  0  0  0  0
    9.1556   -2.9647   23.3100 C   0  0  1  0  0  0  0  0  0  0  0  0
    8.2597   -1.7821   23.7565 C   0  0  0  0  0  0  0  0  0  0  0  0
    8.2542   -0.9099   22.4943 C   0  0  0  0  0  0  0  0  0  0  0  0
    9.1429   -1.7386   21.5497 C   0  0  1  0  0  0  0  0  0  0  0  0
   10.6048   -1.5860   22.0132 C   0  0  0  0  0  0  0  0  0  0  0  0
   10.6169   -2.4508   23.2818 C   0  0  0  0  0  0  0  0  0  0  0  0
    8.8189   -3.1135   21.8998 N   0  0  0  0  0  0  0  0  0  0  0  0
  1  2  3  0
  2  3  1  0
  3  4  1  0
  4  5  1  0
  4  6  1  0
  6  7  1  0
  8  7  1  1
  8  9  1  0
  9 10  1  0
 11 10  1  1
 11 12  1  0
 11 14  1  0
 12 13  1  0
 13  8  1  0
 14  8  1  0
M  END
>  <Hit>  (446) 
Mpro-x0991_0

>  <Receptor>  (446) 
Mpro-x0305_0

>  <SCORE>  (446) 
-4.21394

>  <SCORE.norm>  (446) 
-0.30099599999999999

>  <SCORE.heavy>  (446) 
14

>  <OrigSmiles>  (446) 
C#CCN(C)CCC12CCC(CC1)N2

>  <SuCOS_Score>  (446) 
0.41925842356531923

>  <Max_SuCOS_Score>  (446) 
0.41925842356531923

>  <Cum_SuCOS_Score>  (446) 
3.1687865318859445

>  <TransFSScore_50nM>  (446) 
0.018964999999999999

>  <TransFSScore_1uM>  (446) 
0.097481999999999999

>  <TransFSScore_10nM>  (446) 
0.019754000000000001

>  <TransFSScore_200nM>  (446) 
0.406775

>  <TransFSScore>  (446) 
0.135744

>  <FeatureSteinScore>  (446) 
0.35508526013321845

$$$$
C#CCN(C)C[C@@H]1C[C@@H]2CC[C@H]1N2
     RDKit          3D

 13 14  0  0  0  0  0  0  0  0999 V2000
    8.7876   -5.7667   24.2982 C   0  0  0  0  0  0  0  0  0  0  0  0
    9.6660   -5.3578   25.0153 C   0  0  0  0  0  0  0  0  0  0  0  0
   10.7409   -4.8600   25.8908 C   0  0  0  0  0  0  0  0  0  0  0  0
   10.2035   -3.9453   26.9166 N   0  0  0  0  0  0  0  0  0  0  0  0
    9.4055   -4.7094   27.8923 C   0  0  0  0  0  0  0  0  0  0  0  0
    9.3901   -2.8728   26.2923 C   0  0  0  0  0  0  0  0  0  0  0  0
   10.2665   -1.6597   25.8978 C   0  0  2  0  0  0  0  0  0  0  0  0
    9.4866   -0.4296   25.3969 C   0  0  0  0  0  0  0  0  0  0  0  0
   10.1796   -0.1547   24.0479 C   0  0  2  0  0  0  0  0  0  0  0  0
    9.6885   -1.1889   23.0265 C   0  0  0  0  0  0  0  0  0  0  0  0
   10.4502   -2.4398   23.4786 C   0  0  0  0  0  0  0  0  0  0  0  0
   11.2205   -1.9024   24.6988 C   0  0  1  0  0  0  0  0  0  0  0  0
   11.5588   -0.5597   24.2607 N   0  0  0  0  0  0  0  0  0  0  0  0
  1  2  3  0
  2  3  1  0
  3  4  1  0
  4  5  1  0
  4  6  1  0
  7  6  1  6
  7  8  1  0
  9  8  1  1
  9 10  1  0
 10 11  1  0
 12 11  1  6
 12 13  1  0
 12  7  1  0
 13  9  1  0
M  END
>  <Hit>  (447) 
Mpro-x0991_0

>  <Receptor>  (447) 
Mpro-x0387_0

>  <SCORE>  (447) 
-2.07952

>  <SCORE.norm>  (447) 
-0.15996299999999999

>  <SCORE.heavy>  (447) 
13

>  <OrigSmiles>  (447) 
C#CCN(C)C[C@@H]1C[C@@H]2CC[C@H]1N2

>  <SuCOS_Score>  (447) 
0.31789986882233279

>  <Max_SuCOS_Score>  (447) 
0.32773240645597418

>  <Cum_SuCOS_Score>  (447) 
3.23584715524989

>  <TransFSScore_50nM>  (447) 
0.118517

>  <TransFSScore_1uM>  (447) 
0.061391000000000001

>  <TransFSScore_10nM>  (447) 
0.062203000000000001

>  <TransFSScore_200nM>  (447) 
0.303817

>  <TransFSScore>  (447) 
0.13648199999999999

>  <FeatureSteinScore>  (447) 
0.18818693829380373

$$$$
C#CCN(C)c1nccc(C)c1C#N
     RDKit          3D

 14 14  0  0  0  0  0  0  0  0999 V2000
    7.5123    1.5052   25.6594 C   0  0  0  0  0  0  0  0  0  0  0  0
    8.0999    0.6896   24.9932 C   0  0  0  0  0  0  0  0  0  0  0  0
    8.8269   -0.3106   24.1854 C   0  0  0  0  0  0  0  0  0  0  0  0
   10.1190   -0.6648   24.8157 N   0  0  0  0  0  0  0  0  0  0  0  0
   10.0811   -2.1078   25.2041 C   0  0  0  0  0  0  0  0  0  0  0  0
   11.3469   -0.4669   24.0436 C   0  0  0  0  0  0  0  0  0  0  0  0
   12.3027    0.3143   24.6340 N   0  0  0  0  0  0  0  0  0  0  0  0
   13.5770    0.3811   24.1931 C   0  0  0  0  0  0  0  0  0  0  0  0
   13.9537   -0.2888   23.0436 C   0  0  0  0  0  0  0  0  0  0  0  0
   13.0101   -1.0285   22.3307 C   0  0  0  0  0  0  0  0  0  0  0  0
   13.4353   -1.6994   21.0461 C   0  0  0  0  0  0  0  0  0  0  0  0
   11.6835   -1.1196   22.8112 C   0  0  0  0  0  0  0  0  0  0  0  0
   10.7217   -1.7863   21.9593 C   0  0  0  0  0  0  0  0  0  0  0  0
    9.9641   -2.3192   21.2644 N   0  0  0  0  0  0  0  0  0  0  0  0
  1  2  3  0
  2  3  1  0
  3  4  1  0
  4  5  1  0
  4  6  1  0
  6  7  2  0
  7  8  1  0
  8  9  2  0
  9 10  1  0
 10 11  1  0
 10 12  2  0
 12 13  1  0
 12  6  1  0
 13 14  3  0
M  END
>  <Hit>  (448) 
Mpro-x0305_0

>  <Receptor>  (448) 
Mpro-x0387_0

>  <SCORE>  (448) 
-10.589600000000001

>  <SCORE.norm>  (448) 
-0.75640300000000005

>  <SCORE.heavy>  (448) 
14

>  <OrigSmiles>  (448) 
C#CCN(C)c1nccc(C)c1C#N

>  <SuCOS_Score>  (448) 
0.65121760025307895

>  <Max_SuCOS_Score>  (448) 
0.65121760025307895

>  <Cum_SuCOS_Score>  (448) 
4.861902034494376

>  <TransFSScore_50nM>  (448) 
0.00116

>  <TransFSScore_1uM>  (448) 
0.15564

>  <TransFSScore_10nM>  (448) 
0.0022690000000000002

>  <TransFSScore_200nM>  (448) 
0.045816999999999997

>  <TransFSScore>  (448) 
0.051221499999999996

>  <FeatureSteinScore>  (448) 
0.50978874880187997

$$$$
C#CCN(C1CCC1)S(=O)(=O)CCCOCc1ccccc1
     RDKit          3D

 22 23  0  0  0  0  0  0  0  0999 V2000
    4.2783    3.4782   21.4238 C   0  0  0  0  0  0  0  0  0  0  0  0
    5.2105    2.7507   21.1891 C   0  0  0  0  0  0  0  0  0  0  0  0
    6.3486    1.8620   20.9026 C   0  0  0  0  0  0  0  0  0  0  0  0
    5.9096    0.4494   20.7293 N   0  0  0  0  0  0  0  0  0  0  0  0
    6.1405   -0.1302   19.3755 C   0  0  0  0  0  0  0  0  0  0  0  0
    7.1374    0.6063   18.4729 C   0  0  0  0  0  0  0  0  0  0  0  0
    6.0165    0.8830   17.4757 C   0  0  0  0  0  0  0  0  0  0  0  0
    5.0223    0.1454   18.3675 C   0  0  0  0  0  0  0  0  0  0  0  0
    6.6793   -0.5822   21.9194 S   0  0  0  0  0  0  0  0  0  0  0  0
    6.3322   -0.1126   23.3054 O   0  0  0  0  0  0  0  0  0  0  0  0
    8.1714   -0.5177   21.7415 O   0  0  0  0  0  0  0  0  0  0  0  0
    6.1588   -2.2841   21.7332 C   0  0  0  0  0  0  0  0  0  0  0  0
    6.5476   -3.1122   22.9603 C   0  0  0  0  0  0  0  0  0  0  0  0
    7.9961   -3.5999   22.8604 C   0  0  0  0  0  0  0  0  0  0  0  0
    8.8858   -2.5462   23.1785 O   0  0  0  0  0  0  0  0  0  0  0  0
   10.2195   -3.0105   23.2007 C   0  0  0  0  0  0  0  0  0  0  0  0
   11.1281   -1.8577   23.5133 C   0  0  0  0  0  0  0  0  0  0  0  0
   12.1685   -1.5250   22.6324 C   0  0  0  0  0  0  0  0  0  0  0  0
   13.0122   -0.4488   22.9160 C   0  0  0  0  0  0  0  0  0  0  0  0
   12.8141    0.3095   24.0722 C   0  0  0  0  0  0  0  0  0  0  0  0
   11.7683   -0.0042   24.9440 C   0  0  0  0  0  0  0  0  0  0  0  0
   10.9234   -1.0814   24.6648 C   0  0  0  0  0  0  0  0  0  0  0  0
  1  2  3  0
  2  3  1  0
  3  4  1  0
  4  5  1  0
  4  9  1  0
  5  6  1  0
  6  7  1  0
  7  8  1  0
  8  5  1  0
  9 10  2  0
  9 11  2  0
  9 12  1  0
 12 13  1  0
 13 14  1  0
 14 15  1  0
 15 16  1  0
 16 17  1  0
 17 18  2  0
 18 19  1  0
 19 20  2  0
 20 21  1  0
 21 22  2  0
 22 17  1  0
M  END
>  <Hit>  (449) 
Mpro-x0072_0

>  <Receptor>  (449) 
Mpro-x0387_0

>  <SCORE>  (449) 
-10.8154

>  <SCORE.norm>  (449) 
-0.49160799999999999

>  <SCORE.heavy>  (449) 
22

>  <OrigSmiles>  (449) 
C#CCN(C1CCC1)S(=O)(=O)CCCOCc1ccccc1

>  <SuCOS_Score>  (449) 
0.36671384401553553

>  <Max_SuCOS_Score>  (449) 
0.44772950285102997

>  <Cum_SuCOS_Score>  (449) 
5.9915095494261168

>  <TransFSScore_50nM>  (449) 
0.012917

>  <TransFSScore_1uM>  (449) 
0.277335

>  <TransFSScore_10nM>  (449) 
0.026561999999999999

>  <TransFSScore_200nM>  (449) 
0.122548

>  <TransFSScore>  (449) 
0.10984049999999999

>  <FeatureSteinScore>  (449) 
0.3126272579687337

$$$$
C#CCN(CC#C)C(=O)C1C2CNC1C2
     RDKit          3D

 15 16  0  0  0  0  0  0  0  0999 V2000
    7.8142   -5.4478   22.9858 C   0  0  0  0  0  0  0  0  0  0  0  0
    8.6783   -5.2169   23.7939 C   0  0  0  0  0  0  0  0  0  0  0  0
    9.7340   -4.9361   24.7803 C   0  0  0  0  0  0  0  0  0  0  0  0
    9.1882   -4.2309   25.9453 N   0  0  0  0  0  0  0  0  0  0  0  0
    9.3288   -4.8486   27.2703 C   0  0  0  0  0  0  0  0  0  0  0  0
    8.0853   -5.5302   27.6467 C   0  0  0  0  0  0  0  0  0  0  0  0
    7.0632   -6.0907   27.9529 C   0  0  0  0  0  0  0  0  0  0  0  0
    8.5473   -2.9465   25.7614 C   0  0  0  0  0  0  0  0  0  0  0  0
    8.1488   -2.6133   24.6116 O   0  0  0  0  0  0  0  0  0  0  0  0
    8.2490   -2.0138   26.9244 C   0  0  1  0  0  0  0  0  0  0  0  0
    9.3152   -1.0187   27.3916 C   0  0  1  0  0  0  0  0  0  0  0  0
    9.6748   -0.3055   26.0815 C   0  0  0  0  0  0  0  0  0  0  0  0
    8.3245   -0.0753   25.5278 N   0  0  0  0  0  0  0  0  0  0  0  0
    7.5337   -0.6905   26.6086 C   0  0  2  0  0  0  0  0  0  0  0  0
    8.1877   -0.1044   27.8552 C   0  0  0  0  0  0  0  0  0  0  0  0
  1  2  3  0
  2  3  1  0
  3  4  1  0
  4  5  1  0
  4  8  1  0
  5  6  1  0
  6  7  3  0
  8  9  2  0
 10  8  1  6
 10 11  1  0
 11 12  1  6
 12 13  1  0
 13 14  1  0
 14 15  1  1
 14 10  1  0
 15 11  1  0
M  END
>  <Hit>  (450) 
Mpro-x0991_0

>  <Receptor>  (450) 
Mpro-x1249_0

>  <SCORE>  (450) 
-1.3350200000000001

>  <SCORE.norm>  (450) 
-0.0890011

>  <SCORE.heavy>  (450) 
15

>  <OrigSmiles>  (450) 
C#CCN(CC#C)C(=O)C1C2CNC1C2

>  <SuCOS_Score>  (450) 
0.49778866548704548

>  <Max_SuCOS_Score>  (450) 
0.49778866548704548

>  <Cum_SuCOS_Score>  (450) 
2.1660133931093903

>  <TransFSScore_50nM>  (450) 
0.022619

>  <TransFSScore_1uM>  (450) 
0.110676

>  <TransFSScore_10nM>  (450) 
0.071729000000000001

>  <TransFSScore_200nM>  (450) 
0.136963

>  <TransFSScore>  (450) 
0.085496749999999996

>  <FeatureSteinScore>  (450) 
0.31183553451146523

$$$$
C#CCN(CC#C)C(=O)[C@H]1[C@@H]2C[C@H]1CN2
     RDKit          3D

 15 16  0  0  0  0  0  0  0  0999 V2000
    7.6554   -5.4877   22.6319 C   0  0  0  0  0  0  0  0  0  0  0  0
    8.4442   -5.4525   23.5427 C   0  0  0  0  0  0  0  0  0  0  0  0
    9.4101   -5.4122   24.6591 C   0  0  0  0  0  0  0  0  0  0  0  0
    8.9870   -4.4755   25.7252 N   0  0  0  0  0  0  0  0  0  0  0  0
    9.9230   -4.4983   26.8705 C   0  0  0  0  0  0  0  0  0  0  0  0
    9.5521   -3.5132   27.9015 C   0  0  0  0  0  0  0  0  0  0  0  0
    9.2487   -2.7072   28.7449 C   0  0  0  0  0  0  0  0  0  0  0  0
    8.8298   -3.1072   25.2395 C   0  0  0  0  0  0  0  0  0  0  0  0
    7.8449   -2.4697   25.5852 O   0  0  0  0  0  0  0  0  0  0  0  0
    9.7851   -2.4889   24.2154 C   0  0  1  0  0  0  0  0  0  0  0  0
    9.7038   -0.9872   23.8974 C   0  0  2  0  0  0  0  0  0  0  0  0
   11.1777   -1.0579   23.4992 C   0  0  0  0  0  0  0  0  0  0  0  0
   11.1850   -2.0568   24.6527 C   0  0  1  0  0  0  0  0  0  0  0  0
   10.8771   -1.0800   25.7977 C   0  0  0  0  0  0  0  0  0  0  0  0
    9.7724   -0.3050   25.1998 N   0  0  0  0  0  0  0  0  0  0  0  0
  1  2  3  0
  2  3  1  0
  3  4  1  0
  4  5  1  0
  4  8  1  0
  5  6  1  0
  6  7  3  0
  8  9  2  0
 10  8  1  1
 10 11  1  0
 11 12  1  6
 13 12  1  6
 13 14  1  0
 13 10  1  0
 14 15  1  0
 15 11  1  0
M  END
>  <Hit>  (451) 
Mpro-x0991_0

>  <Receptor>  (451) 
Mpro-x0387_0

>  <SCORE>  (451) 
-1.8268599999999999

>  <SCORE.norm>  (451) 
-0.121791

>  <SCORE.heavy>  (451) 
15

>  <OrigSmiles>  (451) 
C#CCN(CC#C)C(=O)[C@H]1[C@@H]2C[C@H]1CN2

>  <SuCOS_Score>  (451) 
0.48092238662638748

>  <Max_SuCOS_Score>  (451) 
0.48092238662638748

>  <Cum_SuCOS_Score>  (451) 
3.3510318715739893

>  <TransFSScore_50nM>  (451) 
0.066952999999999999

>  <TransFSScore_1uM>  (451) 
0.17294100000000001

>  <TransFSScore_10nM>  (451) 
0.20966099999999999

>  <TransFSScore_200nM>  (451) 
0.40688999999999997

>  <TransFSScore>  (451) 
0.21411124999999998

>  <FeatureSteinScore>  (451) 
0.38356526434502586

$$$$
C#CCN(CC#C)CC12CCC(CC1)N2
     RDKit          3D

 15 16  0  0  0  0  0  0  0  0999 V2000
    8.5903   -3.7742   23.0216 C   0  0  0  0  0  0  0  0  0  0  0  0
    9.1877   -4.1431   24.0015 C   0  0  0  0  0  0  0  0  0  0  0  0
    9.9191   -4.5975   25.2005 C   0  0  0  0  0  0  0  0  0  0  0  0
    9.5539   -3.8344   26.4119 N   0  0  0  0  0  0  0  0  0  0  0  0
    9.8812   -4.6314   27.6220 C   0  0  0  0  0  0  0  0  0  0  0  0
    8.8026   -4.6199   28.6253 C   0  0  0  0  0  0  0  0  0  0  0  0
    7.9183   -4.6113   29.4445 C   0  0  0  0  0  0  0  0  0  0  0  0
   10.0403   -2.4161   26.4302 C   0  0  0  0  0  0  0  0  0  0  0  0
    9.4710   -1.4236   27.4983 C   0  0  1  0  0  0  0  0  0  0  0  0
   10.1029   -0.0148   27.5560 C   0  0  0  0  0  0  0  0  0  0  0  0
    9.8059    0.4004   29.0005 C   0  0  0  0  0  0  0  0  0  0  0  0
    9.0838   -0.8475   29.5357 C   0  0  1  0  0  0  0  0  0  0  0  0
    7.6630   -0.8785   28.9692 C   0  0  0  0  0  0  0  0  0  0  0  0
    7.9285   -1.2777   27.5122 C   0  0  0  0  0  0  0  0  0  0  0  0
    9.7166   -1.9487   28.8368 N   0  0  0  0  0  0  0  0  0  0  0  0
  1  2  3  0
  2  3  1  0
  3  4  1  0
  4  5  1  0
  4  8  1  0
  5  6  1  0
  6  7  3  0
  9  8  1  6
  9 10  1  0
 10 11  1  0
 12 11  1  6
 12 13  1  0
 12 15  1  0
 13 14  1  0
 14  9  1  0
 15  9  1  0
M  END
>  <Hit>  (452) 
Mpro-x0991_0

>  <Receptor>  (452) 
Mpro-x0387_0

>  <SCORE>  (452) 
-0.74042399999999997

>  <SCORE.norm>  (452) 
-0.049361599999999999

>  <SCORE.heavy>  (452) 
15

>  <OrigSmiles>  (452) 
C#CCN(CC#C)CC12CCC(CC1)N2

>  <SuCOS_Score>  (452) 
0.35966699790408724

>  <Max_SuCOS_Score>  (452) 
0.35966699790408724

>  <Cum_SuCOS_Score>  (452) 
1.5367727347614923

>  <TransFSScore_50nM>  (452) 
0.0012999999999999999

>  <TransFSScore_1uM>  (452) 
0.083058000000000007

>  <TransFSScore_10nM>  (452) 
0.0018159999999999999

>  <TransFSScore_200nM>  (452) 
0.0045170000000000002

>  <TransFSScore>  (452) 
0.022672749999999998

>  <FeatureSteinScore>  (452) 
0.18772697987075226

$$$$
C#CCN(CC#C)CC1CC2CCC1N2
     RDKit          3D

 15 16  0  0  0  0  0  0  0  0999 V2000
    7.5464   -5.3920   22.5788 C   0  0  0  0  0  0  0  0  0  0  0  0
    8.3379   -5.2232   23.4721 C   0  0  0  0  0  0  0  0  0  0  0  0
    9.3034   -5.0167   24.5643 C   0  0  0  0  0  0  0  0  0  0  0  0
    8.8185   -3.9853   25.5034 N   0  0  0  0  0  0  0  0  0  0  0  0
    9.2239   -4.3118   26.8884 C   0  0  0  0  0  0  0  0  0  0  0  0
    8.2227   -5.1837   27.5153 C   0  0  0  0  0  0  0  0  0  0  0  0
    7.4029   -5.9000   28.0327 C   0  0  0  0  0  0  0  0  0  0  0  0
    9.3001   -2.6398   25.1058 C   0  0  0  0  0  0  0  0  0  0  0  0
    8.8379   -2.3175   23.6686 C   0  0  1  0  0  0  0  0  0  0  0  0
    8.6325   -0.8130   23.4021 C   0  0  0  0  0  0  0  0  0  0  0  0
    9.4945   -0.6100   22.1400 C   0  0  1  0  0  0  0  0  0  0  0  0
   10.9756   -0.6029   22.5661 C   0  0  0  0  0  0  0  0  0  0  0  0
   11.2282   -2.0964   22.8095 C   0  0  0  0  0  0  0  0  0  0  0  0
    9.8304   -2.6900   22.5353 C   0  0  2  0  0  0  0  0  0  0  0  0
    9.3573   -1.8727   21.4282 N   0  0  0  0  0  0  0  0  0  0  0  0
  1  2  3  0
  2  3  1  0
  3  4  1  0
  4  5  1  0
  4  8  1  0
  5  6  1  0
  6  7  3  0
  9  8  1  1
  9 10  1  0
 11 10  1  1
 11 12  1  0
 12 13  1  0
 14 13  1  1
 14 15  1  0
 14  9  1  0
 15 11  1  0
M  END
>  <Hit>  (453) 
Mpro-x0991_0

>  <Receptor>  (453) 
Mpro-x1249_0

>  <SCORE>  (453) 
-4.4849199999999998

>  <SCORE.norm>  (453) 
-0.29899500000000001

>  <SCORE.heavy>  (453) 
15

>  <OrigSmiles>  (453) 
C#CCN(CC#C)CC1CC2CCC1N2

>  <SuCOS_Score>  (453) 
0.51116663077055524

>  <Max_SuCOS_Score>  (453) 
0.51116663077055524

>  <Cum_SuCOS_Score>  (453) 
3.704478961436442

>  <TransFSScore_50nM>  (453) 
0.010756999999999999

>  <TransFSScore_1uM>  (453) 
0.043638999999999997

>  <TransFSScore_10nM>  (453) 
0.0081849999999999996

>  <TransFSScore_200nM>  (453) 
0.057574

>  <TransFSScore>  (453) 
0.030038749999999999

>  <FeatureSteinScore>  (453) 
0.40778954719754562

$$$$
C#CCN(CC#C)C[C@@H]1C[C@@H]2CC[C@H]1N2
     RDKit          3D

 15 16  0  0  0  0  0  0  0  0999 V2000
    7.5840   -5.1273   22.1611 C   0  0  0  0  0  0  0  0  0  0  0  0
    8.2436   -5.3109   23.1532 C   0  0  0  0  0  0  0  0  0  0  0  0
    9.0539   -5.5357   24.3699 C   0  0  0  0  0  0  0  0  0  0  0  0
    8.7153   -4.6142   25.4821 N   0  0  0  0  0  0  0  0  0  0  0  0
    9.2046   -5.1381   26.7864 C   0  0  0  0  0  0  0  0  0  0  0  0
    8.1478   -5.8664   27.5082 C   0  0  0  0  0  0  0  0  0  0  0  0
    7.2817   -6.4610   28.0990 C   0  0  0  0  0  0  0  0  0  0  0  0
    9.2403   -3.2422   25.2271 C   0  0  0  0  0  0  0  0  0  0  0  0
    8.7354   -2.1193   26.1928 C   0  0  2  0  0  0  0  0  0  0  0  0
    7.2569   -1.6554   26.1616 C   0  0  0  0  0  0  0  0  0  0  0  0
    7.4249   -0.1227   26.0969 C   0  0  2  0  0  0  0  0  0  0  0  0
    7.8432    0.2541   24.6635 C   0  0  0  0  0  0  0  0  0  0  0  0
    9.3136   -0.1859   24.6522 C   0  0  0  0  0  0  0  0  0  0  0  0
    9.4722   -0.7600   26.0745 C   0  0  1  0  0  0  0  0  0  0  0  0
    8.6330    0.1238   26.8696 N   0  0  0  0  0  0  0  0  0  0  0  0
  1  2  3  0
  2  3  1  0
  3  4  1  0
  4  5  1  0
  4  8  1  0
  5  6  1  0
  6  7  3  0
  9  8  1  6
  9 10  1  0
 11 10  1  6
 11 12  1  0
 12 13  1  0
 14 13  1  6
 14 15  1  0
 14  9  1  0
 15 11  1  0
M  END
>  <Hit>  (454) 
Mpro-x0991_0

>  <Receptor>  (454) 
Mpro-x0874_0

>  <SCORE>  (454) 
-3.6953499999999999

>  <SCORE.norm>  (454) 
-0.24635599999999999

>  <SCORE.heavy>  (454) 
15

>  <OrigSmiles>  (454) 
C#CCN(CC#C)C[C@@H]1C[C@@H]2CC[C@H]1N2

>  <SuCOS_Score>  (454) 
0.46641257433225419

>  <Max_SuCOS_Score>  (454) 
0.46641257433225419

>  <Cum_SuCOS_Score>  (454) 
2.3932813199402516

>  <TransFSScore_50nM>  (454) 
0.017905999999999998

>  <TransFSScore_1uM>  (454) 
0.072568999999999995

>  <TransFSScore_10nM>  (454) 
0.0072890000000000003

>  <TransFSScore_200nM>  (454) 
0.05126

>  <TransFSScore>  (454) 
0.037255999999999997

>  <FeatureSteinScore>  (454) 
0.25440827040132941

$$$$
C#CCN(CC(=O)Cc1cccc(O)c1)C(=O)OC(C)(C)C
     RDKit          3D

 22 22  0  0  0  0  0  0  0  0999 V2000
   13.8657   -1.5340   20.4775 C   0  0  0  0  0  0  0  0  0  0  0  0
   13.0021   -1.6651   21.3081 C   0  0  0  0  0  0  0  0  0  0  0  0
   11.9432   -1.8228   22.3241 C   0  0  0  0  0  0  0  0  0  0  0  0
   10.5943   -1.5070   21.7818 N   0  0  0  0  0  0  0  0  0  0  0  0
   10.4478   -0.0693   21.5747 C   0  0  0  0  0  0  0  0  0  0  0  0
    9.1021    0.4103   21.1210 C   0  0  0  0  0  0  0  0  0  0  0  0
    8.8105    1.5935   21.2131 O   0  0  0  0  0  0  0  0  0  0  0  0
    8.1309   -0.5544   20.5076 C   0  0  0  0  0  0  0  0  0  0  0  0
    7.0902    0.2128   19.7449 C   0  0  0  0  0  0  0  0  0  0  0  0
    7.0871    0.2091   18.3453 C   0  0  0  0  0  0  0  0  0  0  0  0
    6.0738    0.8694   17.6456 C   0  0  0  0  0  0  0  0  0  0  0  0
    5.0257    1.4813   18.3374 C   0  0  0  0  0  0  0  0  0  0  0  0
    5.0280    1.4986   19.7302 C   0  0  0  0  0  0  0  0  0  0  0  0
    4.0118    2.1461   20.4222 O   0  0  0  0  0  0  0  0  0  0  0  0
    6.0885    0.9232   20.4227 C   0  0  0  0  0  0  0  0  0  0  0  0
    9.6493   -2.1529   22.6392 C   0  0  0  0  0  0  0  0  0  0  0  0
    9.3980   -1.6680   23.7773 O   0  0  0  0  0  0  0  0  0  0  0  0
    9.0291   -3.3357   22.2054 O   0  0  0  0  0  0  0  0  0  0  0  0
    8.0388   -4.0895   22.9183 C   0  0  0  0  0  0  0  0  0  0  0  0
    6.8181   -3.2085   23.2445 C   0  0  0  0  0  0  0  0  0  0  0  0
    8.6840   -4.5523   24.2333 C   0  0  0  0  0  0  0  0  0  0  0  0
    7.6152   -5.3292   22.1080 C   0  0  0  0  0  0  0  0  0  0  0  0
  1  2  3  0
  2  3  1  0
  3  4  1  0
  4  5  1  0
  4 16  1  0
  5  6  1  0
  6  7  2  0
  6  8  1  0
  8  9  1  0
  9 10  2  0
 10 11  1  0
 11 12  2  0
 12 13  1  0
 13 14  1  0
 13 15  2  0
 15  9  1  0
 16 17  2  0
 16 18  1  0
 18 19  1  0
 19 20  1  0
 19 21  1  0
 19 22  1  0
M  END
>  <Hit>  (455) 
Mpro-x0967_0

>  <Receptor>  (455) 
Mpro-x0874_0

>  <SCORE>  (455) 
-12.528700000000001

>  <SCORE.norm>  (455) 
-0.56948600000000005

>  <SCORE.heavy>  (455) 
22

>  <OrigSmiles>  (455) 
C#CCN(CC(=O)Cc1cccc(O)c1)C(=O)OC(C)(C)C

>  <SuCOS_Score>  (455) 
0.35187315246090473

>  <Max_SuCOS_Score>  (455) 
0.51841541391170876

>  <Cum_SuCOS_Score>  (455) 
5.9569931516052339

>  <TransFSScore_50nM>  (455) 
0.057814999999999998

>  <TransFSScore_1uM>  (455) 
0.46881400000000001

>  <TransFSScore_10nM>  (455) 
0.05076

>  <TransFSScore_200nM>  (455) 
0.12292500000000001

>  <TransFSScore>  (455) 
0.17507850000000003

>  <FeatureSteinScore>  (455) 
0.50199591009029743

$$$$
C#CCN(CC(=O)Cc1ccccc1)C(=O)OC(C)(C)C
     RDKit          3D

 21 21  0  0  0  0  0  0  0  0999 V2000
   13.1605    0.4288   23.8065 C   0  0  0  0  0  0  0  0  0  0  0  0
   12.7761   -0.3498   22.9704 C   0  0  0  0  0  0  0  0  0  0  0  0
   12.3040   -1.3023   21.9468 C   0  0  0  0  0  0  0  0  0  0  0  0
   10.8333   -1.3211   21.8067 N   0  0  0  0  0  0  0  0  0  0  0  0
   10.2490    0.0206   21.5865 C   0  0  0  0  0  0  0  0  0  0  0  0
    8.8140   -0.0667   21.1215 C   0  0  0  0  0  0  0  0  0  0  0  0
    8.3048   -1.1612   20.9326 O   0  0  0  0  0  0  0  0  0  0  0  0
    8.0041    1.1869   20.8894 C   0  0  0  0  0  0  0  0  0  0  0  0
    6.8941    0.9531   19.8931 C   0  0  0  0  0  0  0  0  0  0  0  0
    5.5589    1.0709   20.3018 C   0  0  0  0  0  0  0  0  0  0  0  0
    4.5206    0.8801   19.3878 C   0  0  0  0  0  0  0  0  0  0  0  0
    4.8049    0.5955   18.0515 C   0  0  0  0  0  0  0  0  0  0  0  0
    6.1274    0.4740   17.6320 C   0  0  0  0  0  0  0  0  0  0  0  0
    7.1640    0.6209   18.5518 C   0  0  0  0  0  0  0  0  0  0  0  0
   10.2050   -1.9827   22.9297 C   0  0  0  0  0  0  0  0  0  0  0  0
   10.2518   -1.4666   24.0810 O   0  0  0  0  0  0  0  0  0  0  0  0
    9.5316   -3.1964   22.7153 O   0  0  0  0  0  0  0  0  0  0  0  0
    8.7554   -3.9204   23.6808 C   0  0  0  0  0  0  0  0  0  0  0  0
    9.6541   -4.4451   24.8169 C   0  0  0  0  0  0  0  0  0  0  0  0
    7.6282   -3.0335   24.2433 C   0  0  0  0  0  0  0  0  0  0  0  0
    8.1274   -5.1176   22.9513 C   0  0  0  0  0  0  0  0  0  0  0  0
  1  2  3  0
  2  3  1  0
  3  4  1  0
  4  5  1  0
  4 15  1  0
  5  6  1  0
  6  7  2  0
  6  8  1  0
  8  9  1  0
  9 10  2  0
 10 11  1  0
 11 12  2  0
 12 13  1  0
 13 14  2  0
 14  9  1  0
 15 16  2  0
 15 17  1  0
 17 18  1  0
 18 19  1  0
 18 20  1  0
 18 21  1  0
M  END
>  <Hit>  (456) 
Mpro-x0967_0

>  <Receptor>  (456) 
Mpro-x0305_0

>  <SCORE>  (456) 
-10.0848

>  <SCORE.norm>  (456) 
-0.48023100000000002

>  <SCORE.heavy>  (456) 
21

>  <OrigSmiles>  (456) 
C#CCN(CC(=O)Cc1ccccc1)C(=O)OC(C)(C)C

>  <SuCOS_Score>  (456) 
0.34734567431224567

>  <Max_SuCOS_Score>  (456) 
0.47675441139555186

>  <Cum_SuCOS_Score>  (456) 
6.4693903021137169

>  <TransFSScore_50nM>  (456) 
0.268592

>  <TransFSScore_1uM>  (456) 
0.407362

>  <TransFSScore_10nM>  (456) 
0.13209399999999999

>  <TransFSScore_200nM>  (456) 
0.083652000000000004

>  <TransFSScore>  (456) 
0.22292499999999998

>  <FeatureSteinScore>  (456) 
0.4448779479168733

$$$$
C#CCN(CC(=O)N(CC)Cc1ccccc1)C1CCC1
     RDKit          3D

 21 22  0  0  0  0  0  0  0  0999 V2000
    5.9767   -6.1285   20.6900 C   0  0  0  0  0  0  0  0  0  0  0  0
    5.6459   -5.0384   21.0843 C   0  0  0  0  0  0  0  0  0  0  0  0
    5.2397   -3.7069   21.5654 C   0  0  0  0  0  0  0  0  0  0  0  0
    6.2912   -2.6747   21.3218 N   0  0  0  0  0  0  0  0  0  0  0  0
    7.0503   -2.3725   22.5689 C   0  0  0  0  0  0  0  0  0  0  0  0
    8.1807   -3.3481   22.9164 C   0  0  0  0  0  0  0  0  0  0  0  0
    7.9384   -4.5434   23.0119 O   0  0  0  0  0  0  0  0  0  0  0  0
    9.5594   -2.9078   23.0998 N   0  0  0  0  0  0  0  0  0  0  0  0
    9.9416   -2.9564   24.5345 C   0  0  0  0  0  0  0  0  0  0  0  0
   10.1789   -4.3711   25.0788 C   0  0  0  0  0  0  0  0  0  0  0  0
    9.8642   -1.6116   22.4394 C   0  0  0  0  0  0  0  0  0  0  0  0
   11.3247   -1.2408   22.5532 C   0  0  0  0  0  0  0  0  0  0  0  0
   12.2690   -1.7970   21.6762 C   0  0  0  0  0  0  0  0  0  0  0  0
   13.6179   -1.4546   21.7866 C   0  0  0  0  0  0  0  0  0  0  0  0
   14.0328   -0.5533   22.7692 C   0  0  0  0  0  0  0  0  0  0  0  0
   13.0987    0.0089   23.6424 C   0  0  0  0  0  0  0  0  0  0  0  0
   11.7483   -0.3325   23.5366 C   0  0  0  0  0  0  0  0  0  0  0  0
    5.7282   -1.4390   20.7046 C   0  0  0  0  0  0  0  0  0  0  0  0
    6.7843   -0.4053   20.2882 C   0  0  0  0  0  0  0  0  0  0  0  0
    6.3573   -0.5433   18.8358 C   0  0  0  0  0  0  0  0  0  0  0  0
    5.3345   -1.5968   19.2297 C   0  0  0  0  0  0  0  0  0  0  0  0
  1  2  3  0
  2  3  1  0
  3  4  1  0
  4  5  1  0
  4 18  1  0
  5  6  1  0
  6  7  2  0
  6  8  1  0
  8  9  1  0
  8 11  1  0
  9 10  1  0
 11 12  1  0
 12 13  2  0
 13 14  1  0
 14 15  2  0
 15 16  1  0
 16 17  2  0
 17 12  1  0
 18 19  1  0
 19 20  1  0
 20 21  1  0
 21 18  1  0
M  END
>  <Hit>  (457) 
Mpro-x0072_0

>  <Receptor>  (457) 
Mpro-x0387_0

>  <SCORE>  (457) 
-10.150700000000001

>  <SCORE.norm>  (457) 
-0.48336699999999999

>  <SCORE.heavy>  (457) 
21

>  <OrigSmiles>  (457) 
C#CCN(CC(=O)N(CC)Cc1ccccc1)C1CCC1

>  <SuCOS_Score>  (457) 
0.40607786906240018

>  <Max_SuCOS_Score>  (457) 
0.44042577892610835

>  <Cum_SuCOS_Score>  (457) 
5.5114725209823865

>  <TransFSScore_50nM>  (457) 
0.018780000000000002

>  <TransFSScore_1uM>  (457) 
0.46764899999999998

>  <TransFSScore_10nM>  (457) 
0.10238800000000001

>  <TransFSScore_200nM>  (457) 
0.084025000000000002

>  <TransFSScore>  (457) 
0.16821050000000001

>  <FeatureSteinScore>  (457) 
0.43590198815920195

$$$$
C#CCN(CC(=O)NCc1ccccc1)C1CCC1
     RDKit          3D

 19 20  0  0  0  0  0  0  0  0999 V2000
    7.4397    6.2974   21.4229 C   0  0  0  0  0  0  0  0  0  0  0  0
    7.6223    5.2615   22.0117 C   0  0  0  0  0  0  0  0  0  0  0  0
    7.8453    3.9943   22.7301 C   0  0  0  0  0  0  0  0  0  0  0  0
    9.2514    3.5260   22.5919 N   0  0  0  0  0  0  0  0  0  0  0  0
    9.2943    2.0550   22.8374 C   0  0  0  0  0  0  0  0  0  0  0  0
    8.8798    1.2477   21.6306 C   0  0  0  0  0  0  0  0  0  0  0  0
    8.2994    1.8389   20.6808 O   0  0  0  0  0  0  0  0  0  0  0  0
    9.1263   -0.1639   21.5217 N   0  0  0  0  0  0  0  0  0  0  0  0
    9.6782   -0.9747   22.6080 C   0  0  0  0  0  0  0  0  0  0  0  0
   11.1783   -0.8691   22.6364 C   0  0  0  0  0  0  0  0  0  0  0  0
   11.9545   -1.5928   21.7188 C   0  0  0  0  0  0  0  0  0  0  0  0
   13.3468   -1.4893   21.7414 C   0  0  0  0  0  0  0  0  0  0  0  0
   13.9713   -0.6531   22.6699 C   0  0  0  0  0  0  0  0  0  0  0  0
   13.2035    0.0849   23.5743 C   0  0  0  0  0  0  0  0  0  0  0  0
   11.8102   -0.0179   23.5563 C   0  0  0  0  0  0  0  0  0  0  0  0
   10.1164    4.2485   23.5689 C   0  0  0  0  0  0  0  0  0  0  0  0
   10.3387    5.7339   23.2412 C   0  0  0  0  0  0  0  0  0  0  0  0
   11.8360    5.5005   23.1442 C   0  0  0  0  0  0  0  0  0  0  0  0
   11.6250    4.0168   23.3923 C   0  0  0  0  0  0  0  0  0  0  0  0
  1  2  3  0
  2  3  1  0
  3  4  1  0
  4  5  1  0
  4 16  1  0
  5  6  1  0
  6  7  2  0
  6  8  1  0
  8  9  1  0
  9 10  1  0
 10 11  2  0
 11 12  1  0
 12 13  2  0
 13 14  1  0
 14 15  2  0
 15 10  1  0
 16 17  1  0
 17 18  1  0
 18 19  1  0
 19 16  1  0
M  END
>  <Hit>  (458) 
Mpro-x0072_0

>  <Receptor>  (458) 
Mpro-x0387_0

>  <SCORE>  (458) 
-11.1876

>  <SCORE.norm>  (458) 
-0.58881799999999995

>  <SCORE.heavy>  (458) 
19

>  <OrigSmiles>  (458) 
C#CCN(CC(=O)NCc1ccccc1)C1CCC1

>  <SuCOS_Score>  (458) 
0.33542027496368637

>  <Max_SuCOS_Score>  (458) 
0.54377731566749987

>  <Cum_SuCOS_Score>  (458) 
5.1968444534803933

>  <TransFSScore_50nM>  (458) 
0.028223999999999999

>  <TransFSScore_1uM>  (458) 
0.314025

>  <TransFSScore_10nM>  (458) 
0.042129

>  <TransFSScore_200nM>  (458) 
0.210928

>  <TransFSScore>  (458) 
0.1488265

>  <FeatureSteinScore>  (458) 
0.34909544225745104

$$$$
C#CCN(CC(=O)O)Cc1ccc(Br)cc1Cl
     RDKit          3D

 17 17  0  0  0  0  0  0  0  0999 V2000
   13.6471    4.8391   22.4906 C   0  0  0  0  0  0  0  0  0  0  0  0
   12.5743    5.1423   22.9491 C   0  0  0  0  0  0  0  0  0  0  0  0
   11.2638    5.5133   23.5106 C   0  0  0  0  0  0  0  0  0  0  0  0
   10.2525    4.4470   23.2934 N   0  0  0  0  0  0  0  0  0  0  0  0
    8.8926    4.9625   23.5953 C   0  0  0  0  0  0  0  0  0  0  0  0
    8.3112    5.7246   22.4378 C   0  0  0  0  0  0  0  0  0  0  0  0
    7.7876    5.1101   21.4715 O   0  0  0  0  0  0  0  0  0  0  0  0
    8.3422    7.1134   22.4341 O   0  0  0  0  0  0  0  0  0  0  0  0
   10.5586    3.2684   24.1493 C   0  0  0  0  0  0  0  0  0  0  0  0
   11.1925    2.1365   23.3637 C   0  0  0  0  0  0  0  0  0  0  0  0
   12.4973    1.7200   23.6802 C   0  0  0  0  0  0  0  0  0  0  0  0
   13.1003    0.6728   22.9799 C   0  0  0  0  0  0  0  0  0  0  0  0
   12.4137    0.0296   21.9484 C   0  0  0  0  0  0  0  0  0  0  0  0
   13.2764   -1.3778   20.9710 Br  0  0  0  0  0  0  0  0  0  0  0  0
   11.1134    0.4297   21.6224 C   0  0  0  0  0  0  0  0  0  0  0  0
   10.4995    1.4788   22.3215 C   0  0  0  0  0  0  0  0  0  0  0  0
    8.8728    1.9537   21.8427 Cl  0  0  0  0  0  0  0  0  0  0  0  0
  1  2  3  0
  2  3  1  0
  3  4  1  0
  4  5  1  0
  4  9  1  0
  5  6  1  0
  6  7  2  0
  6  8  1  0
  9 10  1  0
 10 11  2  0
 11 12  1  0
 12 13  2  0
 13 14  1  0
 13 15  1  0
 15 16  2  0
 16 17  1  0
 16 10  1  0
M  END
>  <Hit>  (459) 
Mpro-x0946_0

>  <Receptor>  (459) 
Mpro-x1249_0

>  <SCORE>  (459) 
-11.9579

>  <SCORE.norm>  (459) 
-0.70340599999999998

>  <SCORE.heavy>  (459) 
17

>  <OrigSmiles>  (459) 
C#CCN(CC(=O)O)Cc1ccc(Br)cc1Cl

>  <SuCOS_Score>  (459) 
0.44625606967453502

>  <Max_SuCOS_Score>  (459) 
0.44625606967453502

>  <Cum_SuCOS_Score>  (459) 
3.5651225147114132

>  <TransFSScore_50nM>  (459) 
0.018866999999999998

>  <TransFSScore_1uM>  (459) 
0.014841999999999999

>  <TransFSScore_10nM>  (459) 
0.002614

>  <TransFSScore_200nM>  (459) 
0.066958000000000004

>  <TransFSScore>  (459) 
0.025820249999999999

>  <FeatureSteinScore>  (459) 
0.13196397985795902

$$$$
C#CCN(CC(N)C(C)OCc1ccccc1)C1CCC1
     RDKit          3D

 21 22  0  0  0  0  0  0  0  0999 V2000
   10.8108   -3.9834   25.0666 C   0  0  0  0  0  0  0  0  0  0  0  0
    9.8696   -4.5893   24.6195 C   0  0  0  0  0  0  0  0  0  0  0  0
    8.7198   -5.3307   24.0714 C   0  0  0  0  0  0  0  0  0  0  0  0
    7.4782   -4.4909   24.0384 N   0  0  0  0  0  0  0  0  0  0  0  0
    6.5024   -4.9983   23.0249 C   0  0  0  0  0  0  0  0  0  0  0  0
    6.8518   -4.5729   21.5652 C   0  0  1  0  0  0  0  0  0  0  0  0
    5.9470   -5.1932   20.5857 N   0  0  0  0  0  0  0  0  0  0  0  0
    6.8955   -3.0238   21.3872 C   0  0  1  0  0  0  0  0  0  0  0  0
    5.5673   -2.3381   21.7281 C   0  0  0  0  0  0  0  0  0  0  0  0
    7.9042   -2.4687   22.2192 O   0  0  0  0  0  0  0  0  0  0  0  0
    9.1931   -2.6210   21.6548 C   0  0  0  0  0  0  0  0  0  0  0  0
   10.1981   -1.7956   22.4120 C   0  0  0  0  0  0  0  0  0  0  0  0
   11.5559   -1.8554   22.0646 C   0  0  0  0  0  0  0  0  0  0  0  0
   12.4970   -1.1097   22.7777 C   0  0  0  0  0  0  0  0  0  0  0  0
   12.0886   -0.3021   23.8415 C   0  0  0  0  0  0  0  0  0  0  0  0
   10.7383   -0.2398   24.1947 C   0  0  0  0  0  0  0  0  0  0  0  0
    9.7942   -0.9861   23.4850 C   0  0  0  0  0  0  0  0  0  0  0  0
    6.7885   -4.3351   25.3570 C   0  0  0  0  0  0  0  0  0  0  0  0
    5.6408   -3.3216   25.4143 C   0  0  0  0  0  0  0  0  0  0  0  0
    6.4062   -2.5275   26.4691 C   0  0  0  0  0  0  0  0  0  0  0  0
    7.5522   -3.5335   26.4161 C   0  0  0  0  0  0  0  0  0  0  0  0
  1  2  3  0
  2  3  1  0
  3  4  1  0
  4  5  1  0
  4 18  1  0
  5  6  1  0
  6  7  1  6
  6  8  1  0
  8  9  1  1
  8 10  1  0
 10 11  1  0
 11 12  1  0
 12 13  2  0
 13 14  1  0
 14 15  2  0
 15 16  1  0
 16 17  2  0
 17 12  1  0
 18 19  1  0
 19 20  1  0
 20 21  1  0
 21 18  1  0
M  END
>  <Hit>  (460) 
Mpro-x0072_0

>  <Receptor>  (460) 
Mpro-x0387_0

>  <SCORE>  (460) 
-12.858700000000001

>  <SCORE.norm>  (460) 
-0.61231800000000003

>  <SCORE.heavy>  (460) 
21

>  <OrigSmiles>  (460) 
C#CCN(CC(N)C(C)OCc1ccccc1)C1CCC1

>  <SuCOS_Score>  (460) 
0.43288492753557645

>  <Max_SuCOS_Score>  (460) 
0.43288492753557645

>  <Cum_SuCOS_Score>  (460) 
4.5653783144141258

>  <TransFSScore_50nM>  (460) 
0.36936600000000003

>  <TransFSScore_1uM>  (460) 
0.31025999999999998

>  <TransFSScore_10nM>  (460) 
0.072824

>  <TransFSScore_200nM>  (460) 
0.82889599999999997

>  <TransFSScore>  (460) 
0.39533649999999998

>  <FeatureSteinScore>  (460) 
0.43287843481419852

$$$$
C#CCN(CC)C(=O)C12CCC(CC1)N2
     RDKit          3D

 15 16  0  0  0  0  0  0  0  0999 V2000
    8.3055   -5.2578   23.3392 C   0  0  0  0  0  0  0  0  0  0  0  0
    8.8624   -5.7082   24.3088 C   0  0  0  0  0  0  0  0  0  0  0  0
    9.5446   -6.2596   25.4970 C   0  0  0  0  0  0  0  0  0  0  0  0
    8.8884   -5.8517   26.7560 N   0  0  0  0  0  0  0  0  0  0  0  0
    7.4136   -5.9985   26.6762 C   0  0  0  0  0  0  0  0  0  0  0  0
    6.7346   -5.9434   28.0501 C   0  0  0  0  0  0  0  0  0  0  0  0
    9.3038   -4.5143   27.1807 C   0  0  0  0  0  0  0  0  0  0  0  0
    9.6690   -4.3670   28.3402 O   0  0  0  0  0  0  0  0  0  0  0  0
    9.3385   -3.2812   26.2634 C   0  0  1  0  0  0  0  0  0  0  0  0
   10.5075   -3.2821   25.2468 C   0  0  0  0  0  0  0  0  0  0  0  0
   10.6717   -1.7838   24.9575 C   0  0  0  0  0  0  0  0  0  0  0  0
    9.5674   -1.1808   25.8410 C   0  0  1  0  0  0  0  0  0  0  0  0
    8.2085   -1.4756   25.1823 C   0  0  0  0  0  0  0  0  0  0  0  0
    8.0304   -2.9670   25.5015 C   0  0  0  0  0  0  0  0  0  0  0  0
    9.5685   -2.0449   27.0092 N   0  0  0  0  0  0  0  0  0  0  0  0
  1  2  3  0
  2  3  1  0
  3  4  1  0
  4  5  1  0
  4  7  1  0
  5  6  1  0
  7  8  2  0
  9  7  1  1
  9 10  1  0
 10 11  1  0
 12 11  1  6
 12 13  1  0
 12 15  1  0
 13 14  1  0
 14  9  1  0
 15  9  1  0
M  END
>  <Hit>  (461) 
Mpro-x0991_0

>  <Receptor>  (461) 
Mpro-x0387_0

>  <SCORE>  (461) 
-2.20587

>  <SCORE.norm>  (461) 
-0.14705799999999999

>  <SCORE.heavy>  (461) 
15

>  <OrigSmiles>  (461) 
C#CCN(CC)C(=O)C12CCC(CC1)N2

>  <SuCOS_Score>  (461) 
0.47527720875865914

>  <Max_SuCOS_Score>  (461) 
0.47527720875865914

>  <Cum_SuCOS_Score>  (461) 
2.3825619449153601

>  <TransFSScore_50nM>  (461) 
0.38864599999999999

>  <TransFSScore_1uM>  (461) 
0.32119199999999998

>  <TransFSScore_10nM>  (461) 
0.26668999999999998

>  <TransFSScore_200nM>  (461) 
0.412692

>  <TransFSScore>  (461) 
0.34730499999999997

>  <FeatureSteinScore>  (461) 
0.24042852688335672

$$$$
C#CCN(CC)C(=O)C1CC2CCC1N2
     RDKit          3D

 15 16  0  0  0  0  0  0  0  0999 V2000
    8.0914   -5.3668   23.1871 C   0  0  0  0  0  0  0  0  0  0  0  0
    8.9128   -5.2896   24.0660 C   0  0  0  0  0  0  0  0  0  0  0  0
    9.9155   -5.1978   25.1393 C   0  0  0  0  0  0  0  0  0  0  0  0
    9.4529   -4.3229   26.2247 N   0  0  0  0  0  0  0  0  0  0  0  0
    9.1404   -4.9308   27.5271 C   0  0  0  0  0  0  0  0  0  0  0  0
    7.6401   -5.1691   27.6598 C   0  0  0  0  0  0  0  0  0  0  0  0
    9.3797   -2.8810   26.0771 C   0  0  0  0  0  0  0  0  0  0  0  0
    9.1264   -2.1738   27.0917 O   0  0  0  0  0  0  0  0  0  0  0  0
    9.5070   -2.2000   24.7226 C   0  0  2  0  0  0  0  0  0  0  0  0
   10.9266   -2.2660   24.1115 C   0  0  0  0  0  0  0  0  0  0  0  0
   11.2583   -0.7695   23.9511 C   0  0  1  0  0  0  0  0  0  0  0  0
   10.4184   -0.2067   22.7871 C   0  0  0  0  0  0  0  0  0  0  0  0
    9.0270   -0.1152   23.4313 C   0  0  0  0  0  0  0  0  0  0  0  0
    9.3103   -0.6672   24.8417 C   0  0  2  0  0  0  0  0  0  0  0  0
   10.6474   -0.1652   25.1229 N   0  0  0  0  0  0  0  0  0  0  0  0
  1  2  3  0
  2  3  1  0
  3  4  1  0
  4  5  1  0
  4  7  1  0
  5  6  1  0
  7  8  2  0
  9  7  1  1
  9 10  1  0
 11 10  1  1
 11 12  1  0
 12 13  1  0
 14 13  1  6
 14 15  1  0
 14  9  1  0
 15 11  1  0
M  END
>  <Hit>  (462) 
Mpro-x0991_0

>  <Receptor>  (462) 
Mpro-x0305_0

>  <SCORE>  (462) 
-5.9634999999999998

>  <SCORE.norm>  (462) 
-0.397567

>  <SCORE.heavy>  (462) 
15

>  <OrigSmiles>  (462) 
C#CCN(CC)C(=O)C1CC2CCC1N2

>  <SuCOS_Score>  (462) 
0.47267590516142594

>  <Max_SuCOS_Score>  (462) 
0.47267590516142594

>  <Cum_SuCOS_Score>  (462) 
3.7430225105199009

>  <TransFSScore_50nM>  (462) 
0.018832999999999999

>  <TransFSScore_1uM>  (462) 
0.270013

>  <TransFSScore_10nM>  (462) 
0.075135999999999994

>  <TransFSScore_200nM>  (462) 
0.21709300000000001

>  <TransFSScore>  (462) 
0.14526875

>  <FeatureSteinScore>  (462) 
0.27649454096640419

$$$$
C#CCN(CC)C(=O)Cc1c[nH]c2ccccc12
     RDKit          3D

 18 19  0  0  0  0  0  0  0  0999 V2000
    7.7216    4.5176   22.7371 C   0  0  0  0  0  0  0  0  0  0  0  0
    8.8309    4.8581   23.0639 C   0  0  0  0  0  0  0  0  0  0  0  0
   10.1924    5.2702   23.4650 C   0  0  0  0  0  0  0  0  0  0  0  0
   11.3260    4.6229   22.7360 N   0  0  0  0  0  0  0  0  0  0  0  0
   12.5718    5.4105   22.9276 C   0  0  0  0  0  0  0  0  0  0  0  0
   13.6342    5.0981   21.8630 C   0  0  0  0  0  0  0  0  0  0  0  0
   11.4717    3.1765   22.8923 C   0  0  0  0  0  0  0  0  0  0  0  0
   10.6511    2.4359   22.3671 O   0  0  0  0  0  0  0  0  0  0  0  0
   12.5893    2.5367   23.6849 C   0  0  0  0  0  0  0  0  0  0  0  0
   12.7260    1.0820   23.3474 C   0  0  0  0  0  0  0  0  0  0  0  0
   13.7956    0.4422   22.7235 C   0  0  0  0  0  0  0  0  0  0  0  0
   13.5374   -0.8722   22.5690 N   0  0  0  0  0  0  0  0  0  0  0  0
   12.2961   -1.0676   23.0459 C   0  0  0  0  0  0  0  0  0  0  0  0
   11.5704   -2.2609   23.0679 C   0  0  0  0  0  0  0  0  0  0  0  0
   10.2628   -2.2305   23.5870 C   0  0  0  0  0  0  0  0  0  0  0  0
    9.7113   -1.0214   24.0592 C   0  0  0  0  0  0  0  0  0  0  0  0
   10.4636    0.1650   24.0228 C   0  0  0  0  0  0  0  0  0  0  0  0
   11.7635    0.1044   23.5138 C   0  0  0  0  0  0  0  0  0  0  0  0
  1  2  3  0
  2  3  1  0
  3  4  1  0
  4  5  1  0
  4  7  1  0
  5  6  1  0
  7  8  2  0
  7  9  1  0
  9 10  1  0
 10 11  2  0
 11 12  1  0
 12 13  1  0
 13 14  2  0
 14 15  1  0
 15 16  2  0
 16 17  1  0
 17 18  2  0
 18 10  1  0
 18 13  1  0
M  END
>  <Hit>  (463) 
Mpro-x0104_0

>  <Receptor>  (463) 
Mpro-x0305_0

>  <SCORE>  (463) 
-13.778700000000001

>  <SCORE.norm>  (463) 
-0.765482

>  <SCORE.heavy>  (463) 
18

>  <OrigSmiles>  (463) 
C#CCN(CC)C(=O)Cc1c[nH]c2ccccc12

>  <SuCOS_Score>  (463) 
0.54106039596035327

>  <Max_SuCOS_Score>  (463) 
0.54106039596035327

>  <Cum_SuCOS_Score>  (463) 
5.2093026371288449

>  <TransFSScore_50nM>  (463) 
0.053212000000000002

>  <TransFSScore_1uM>  (463) 
0.26971600000000001

>  <TransFSScore_10nM>  (463) 
0.02197

>  <TransFSScore_200nM>  (463) 
0.058356999999999999

>  <TransFSScore>  (463) 
0.10081374999999999

>  <FeatureSteinScore>  (463) 
0.38729600997470115

$$$$
C#CCN(CC)C(=O)[C@@H]1C[C@@H]2CC[C@H]1N2
     RDKit          3D

 15 16  0  0  0  0  0  0  0  0999 V2000
    9.1405   -3.3077   23.1363 C   0  0  0  0  0  0  0  0  0  0  0  0
    9.3973   -3.6496   24.2631 C   0  0  0  0  0  0  0  0  0  0  0  0
    9.7099   -4.0688   25.6388 C   0  0  0  0  0  0  0  0  0  0  0  0
    8.5136   -4.0322   26.4893 N   0  0  0  0  0  0  0  0  0  0  0  0
    7.7279   -5.2620   26.6645 C   0  0  0  0  0  0  0  0  0  0  0  0
    7.8992   -5.8233   28.0734 C   0  0  0  0  0  0  0  0  0  0  0  0
    8.0293   -2.7955   27.0592 C   0  0  0  0  0  0  0  0  0  0  0  0
    6.7850   -2.6081   27.1503 O   0  0  0  0  0  0  0  0  0  0  0  0
    8.9711   -1.6751   27.4584 C   0  0  2  0  0  0  0  0  0  0  0  0
    8.3172   -0.5187   28.2432 C   0  0  0  0  0  0  0  0  0  0  0  0
    8.8180    0.7138   27.4597 C   0  0  2  0  0  0  0  0  0  0  0  0
    7.9771    0.8336   26.1789 C   0  0  0  0  0  0  0  0  0  0  0  0
    8.5453   -0.3178   25.3423 C   0  0  0  0  0  0  0  0  0  0  0  0
    9.6265   -0.8910   26.2918 C   0  0  1  0  0  0  0  0  0  0  0  0
   10.1222    0.3010   26.9624 N   0  0  0  0  0  0  0  0  0  0  0  0
  1  2  3  0
  2  3  1  0
  3  4  1  0
  4  5  1  0
  4  7  1  0
  5  6  1  0
  7  8  2  0
  9  7  1  6
  9 10  1  0
 11 10  1  1
 11 12  1  0
 12 13  1  0
 14 13  1  6
 14 15  1  0
 14  9  1  0
 15 11  1  0
M  END
>  <Hit>  (464) 
Mpro-x0991_0

>  <Receptor>  (464) 
Mpro-x0305_0

>  <SCORE>  (464) 
-4.6772099999999996

>  <SCORE.norm>  (464) 
-0.31181399999999998

>  <SCORE.heavy>  (464) 
15

>  <OrigSmiles>  (464) 
C#CCN(CC)C(=O)[C@@H]1C[C@@H]2CC[C@H]1N2

>  <SuCOS_Score>  (464) 
0.40673354442196746

>  <Max_SuCOS_Score>  (464) 
0.40673354442196746

>  <Cum_SuCOS_Score>  (464) 
2.203498885720744

>  <TransFSScore_50nM>  (464) 
0.0071130000000000004

>  <TransFSScore_1uM>  (464) 
0.26394299999999998

>  <TransFSScore_10nM>  (464) 
0.014362

>  <TransFSScore_200nM>  (464) 
0.20528399999999999

>  <TransFSScore>  (464) 
0.12267549999999999

>  <FeatureSteinScore>  (464) 
0.26321746815600644

$$$$
C#CCN(CC)CC12CCC(CC1)N2
     RDKit          3D

 14 15  0  0  0  0  0  0  0  0999 V2000
    8.4019   -5.2772   23.6848 C   0  0  0  0  0  0  0  0  0  0  0  0
    9.1335   -5.0139   24.6062 C   0  0  0  0  0  0  0  0  0  0  0  0
   10.0232   -4.6941   25.7409 C   0  0  0  0  0  0  0  0  0  0  0  0
    9.3071   -4.3114   26.9812 N   0  0  0  0  0  0  0  0  0  0  0  0
    8.5881   -5.4537   27.6099 C   0  0  0  0  0  0  0  0  0  0  0  0
    8.1617   -5.2346   29.0681 C   0  0  0  0  0  0  0  0  0  0  0  0
    8.4497   -3.0942   26.8673 C   0  0  0  0  0  0  0  0  0  0  0  0
    9.2032   -1.7312   27.0124 C   0  0  2  0  0  0  0  0  0  0  0  0
    8.2489   -0.5307   27.2423 C   0  0  0  0  0  0  0  0  0  0  0  0
    9.1994    0.5000   27.8590 C   0  0  0  0  0  0  0  0  0  0  0  0
   10.5231   -0.2854   27.8836 C   0  0  2  0  0  0  0  0  0  0  0  0
   11.0706   -0.3602   26.4525 C   0  0  0  0  0  0  0  0  0  0  0  0
   10.1129   -1.3731   25.8139 C   0  0  0  0  0  0  0  0  0  0  0  0
   10.1201   -1.6576   28.1410 N   0  0  0  0  0  0  0  0  0  0  0  0
  1  2  3  0
  2  3  1  0
  3  4  1  0
  4  5  1  0
  4  7  1  0
  5  6  1  0
  8  7  1  6
  8  9  1  0
  9 10  1  0
 11 10  1  6
 11 12  1  0
 11 14  1  0
 12 13  1  0
 13  8  1  0
 14  8  1  0
M  END
>  <Hit>  (465) 
Mpro-x0991_0

>  <Receptor>  (465) 
Mpro-x0387_0

>  <SCORE>  (465) 
-2.29541

>  <SCORE.norm>  (465) 
-0.16395799999999999

>  <SCORE.heavy>  (465) 
14

>  <OrigSmiles>  (465) 
C#CCN(CC)CC12CCC(CC1)N2

>  <SuCOS_Score>  (465) 
0.39406279707561287

>  <Max_SuCOS_Score>  (465) 
0.39406279707561287

>  <Cum_SuCOS_Score>  (465) 
1.8973721747199048

>  <TransFSScore_50nM>  (465) 
0.0076530000000000001

>  <TransFSScore_1uM>  (465) 
0.088415999999999995

>  <TransFSScore_10nM>  (465) 
0.001634

>  <TransFSScore_200nM>  (465) 
0.0061110000000000001

>  <TransFSScore>  (465) 
0.025953499999999997

>  <FeatureSteinScore>  (465) 
0.28550681974587777

$$$$
C#CCN(CC)CC1CC2CCC1N2
     RDKit          3D

 14 15  0  0  0  0  0  0  0  0999 V2000
    7.9041   -5.4161   22.9715 C   0  0  0  0  0  0  0  0  0  0  0  0
    8.7259   -5.4236   23.8533 C   0  0  0  0  0  0  0  0  0  0  0  0
    9.7298   -5.4353   24.9299 C   0  0  0  0  0  0  0  0  0  0  0  0
    9.4853   -4.3349   25.8823 N   0  0  0  0  0  0  0  0  0  0  0  0
    9.2919   -4.8263   27.2681 C   0  0  0  0  0  0  0  0  0  0  0  0
    8.6504   -3.8058   28.2208 C   0  0  0  0  0  0  0  0  0  0  0  0
   10.4922   -3.2526   25.7511 C   0  0  0  0  0  0  0  0  0  0  0  0
   10.1569   -2.3010   24.5750 C   0  0  1  0  0  0  0  0  0  0  0  0
   11.0045   -1.0065   24.5718 C   0  0  0  0  0  0  0  0  0  0  0  0
   11.7215   -1.1091   23.2186 C   0  0  2  0  0  0  0  0  0  0  0  0
   10.7091   -0.8109   22.0983 C   0  0  0  0  0  0  0  0  0  0  0  0
    9.8846   -2.0997   22.0883 C   0  0  0  0  0  0  0  0  0  0  0  0
   10.5671   -2.9056   23.2104 C   0  0  1  0  0  0  0  0  0  0  0  0
   11.9675   -2.5350   23.1067 N   0  0  0  0  0  0  0  0  0  0  0  0
  1  2  3  0
  2  3  1  0
  3  4  1  0
  4  5  1  0
  4  7  1  0
  5  6  1  0
  8  7  1  1
  8  9  1  0
 10  9  1  1
 10 11  1  0
 11 12  1  0
 13 12  1  6
 13 14  1  0
 13  8  1  0
 14 10  1  0
M  END
>  <Hit>  (466) 
Mpro-x0991_0

>  <Receptor>  (466) 
Mpro-x0387_0

>  <SCORE>  (466) 
-5.5207899999999999

>  <SCORE.norm>  (466) 
-0.39434200000000003

>  <SCORE.heavy>  (466) 
14

>  <OrigSmiles>  (466) 
C#CCN(CC)CC1CC2CCC1N2

>  <SuCOS_Score>  (466) 
0.46574426880013431

>  <Max_SuCOS_Score>  (466) 
0.46574426880013431

>  <Cum_SuCOS_Score>  (466) 
3.5648404419196895

>  <TransFSScore_50nM>  (466) 
0.068396999999999999

>  <TransFSScore_1uM>  (466) 
0.101619

>  <TransFSScore_10nM>  (466) 
0.012880000000000001

>  <TransFSScore_200nM>  (466) 
0.139155

>  <TransFSScore>  (466) 
0.080512749999999994

>  <FeatureSteinScore>  (466) 
0.16211867269247565

$$$$
C#CCN(CC)CCC12CCC(CC1)N2
     RDKit          3D

 15 16  0  0  0  0  0  0  0  0999 V2000
    7.1754   -6.4284   28.0621 C   0  0  0  0  0  0  0  0  0  0  0  0
    8.1078   -5.8961   27.5138 C   0  0  0  0  0  0  0  0  0  0  0  0
    9.2437   -5.2479   26.8467 C   0  0  0  0  0  0  0  0  0  0  0  0
    8.8212   -4.6826   25.5463 N   0  0  0  0  0  0  0  0  0  0  0  0
    9.1025   -5.5955   24.4113 C   0  0  0  0  0  0  0  0  0  0  0  0
    8.0680   -5.5486   23.2786 C   0  0  0  0  0  0  0  0  0  0  0  0
    9.3239   -3.3001   25.3683 C   0  0  0  0  0  0  0  0  0  0  0  0
    8.5235   -2.5326   24.2990 C   0  0  0  0  0  0  0  0  0  0  0  0
    9.4234   -1.7185   23.3435 C   0  0  1  0  0  0  0  0  0  0  0  0
    8.6772   -1.0488   22.1649 C   0  0  0  0  0  0  0  0  0  0  0  0
    9.8161   -0.8666   21.1518 C   0  0  0  0  0  0  0  0  0  0  0  0
   11.0097   -1.4615   21.9224 C   0  0  1  0  0  0  0  0  0  0  0  0
   11.4220   -0.4611   23.0191 C   0  0  0  0  0  0  0  0  0  0  0  0
   10.2905   -0.6438   24.0406 C   0  0  0  0  0  0  0  0  0  0  0  0
   10.4119   -2.5538   22.6733 N   0  0  0  0  0  0  0  0  0  0  0  0
  1  2  3  0
  2  3  1  0
  3  4  1  0
  4  5  1  0
  4  7  1  0
  5  6  1  0
  7  8  1  0
  9  8  1  1
  9 10  1  0
 10 11  1  0
 12 11  1  6
 12 13  1  0
 12 15  1  0
 13 14  1  0
 14  9  1  0
 15  9  1  0
M  END
>  <Hit>  (467) 
Mpro-x0991_0

>  <Receptor>  (467) 
Mpro-x0874_0

>  <SCORE>  (467) 
-4.7167300000000001

>  <SCORE.norm>  (467) 
-0.31444899999999998

>  <SCORE.heavy>  (467) 
15

>  <OrigSmiles>  (467) 
C#CCN(CC)CCC12CCC(CC1)N2

>  <SuCOS_Score>  (467) 
0.46798328023103225

>  <Max_SuCOS_Score>  (467) 
0.46798328023103225

>  <Cum_SuCOS_Score>  (467) 
3.8591057770734802

>  <TransFSScore_50nM>  (467) 
0.011868

>  <TransFSScore_1uM>  (467) 
0.109845

>  <TransFSScore_10nM>  (467) 
0.001315

>  <TransFSScore_200nM>  (467) 
0.019744999999999999

>  <TransFSScore>  (467) 
0.035693249999999996

>  <FeatureSteinScore>  (467) 
0.26791017474533368

$$$$
C#CCN(CC)C[C@@H]1C[C@@H]2CC[C@H]1N2
     RDKit          3D

 14 15  0  0  0  0  0  0  0  0999 V2000
    7.0839   -6.5875   28.2980 C   0  0  0  0  0  0  0  0  0  0  0  0
    7.9467   -5.9269   27.7761 C   0  0  0  0  0  0  0  0  0  0  0  0
    9.0014   -5.1189   27.1390 C   0  0  0  0  0  0  0  0  0  0  0  0
    8.5316   -4.4605   25.8930 N   0  0  0  0  0  0  0  0  0  0  0  0
    8.7580   -5.2836   24.6765 C   0  0  0  0  0  0  0  0  0  0  0  0
    7.9662   -4.8387   23.4397 C   0  0  0  0  0  0  0  0  0  0  0  0
    9.1103   -3.0924   25.8019 C   0  0  0  0  0  0  0  0  0  0  0  0
    8.6096   -2.1304   26.9169 C   0  0  2  0  0  0  0  0  0  0  0  0
    7.2288   -1.4877   26.6565 C   0  0  0  0  0  0  0  0  0  0  0  0
    7.5457    0.0109   26.8306 C   0  0  2  0  0  0  0  0  0  0  0  0
    8.2845    0.4928   25.5693 C   0  0  0  0  0  0  0  0  0  0  0  0
    9.6764   -0.1123   25.7863 C   0  0  0  0  0  0  0  0  0  0  0  0
    9.4803   -0.8615   27.1238 C   0  0  1  0  0  0  0  0  0  0  0  0
    8.5827    0.0223   27.8512 N   0  0  0  0  0  0  0  0  0  0  0  0
  1  2  3  0
  2  3  1  0
  3  4  1  0
  4  5  1  0
  4  7  1  0
  5  6  1  0
  8  7  1  6
  8  9  1  0
 10  9  1  6
 10 11  1  0
 11 12  1  0
 13 12  1  6
 13 14  1  0
 13  8  1  0
 14 10  1  0
M  END
>  <Hit>  (468) 
Mpro-x0991_0

>  <Receptor>  (468) 
Mpro-x1249_0

>  <SCORE>  (468) 
-4.00488

>  <SCORE.norm>  (468) 
-0.28606300000000001

>  <SCORE.heavy>  (468) 
14

>  <OrigSmiles>  (468) 
C#CCN(CC)C[C@@H]1C[C@@H]2CC[C@H]1N2

>  <SuCOS_Score>  (468) 
0.44538333663591889

>  <Max_SuCOS_Score>  (468) 
0.44538333663591889

>  <Cum_SuCOS_Score>  (468) 
2.0297123878572982

>  <TransFSScore_50nM>  (468) 
0.0054510000000000001

>  <TransFSScore_1uM>  (468) 
0.068271999999999999

>  <TransFSScore_10nM>  (468) 
0.012213

>  <TransFSScore_200nM>  (468) 
0.027719000000000001

>  <TransFSScore>  (468) 
0.028413750000000002

>  <FeatureSteinScore>  (468) 
0.20924879161301016

$$$$
C#CCN(CC)c1nccc(C)c1C#N
     RDKit          3D

 15 15  0  0  0  0  0  0  0  0999 V2000
    9.8349   -4.0074   28.4695 C   0  0  0  0  0  0  0  0  0  0  0  0
    9.7813   -3.5282   27.3649 C   0  0  0  0  0  0  0  0  0  0  0  0
    9.7162   -2.9383   26.0131 C   0  0  0  0  0  0  0  0  0  0  0  0
    9.9027   -1.4523   26.0285 N   0  0  0  0  0  0  0  0  0  0  0  0
    8.6419   -0.6826   25.8286 C   0  0  0  0  0  0  0  0  0  0  0  0
    8.2690    0.2558   26.9779 C   0  0  0  0  0  0  0  0  0  0  0  0
   11.0190   -1.0637   25.1552 C   0  0  0  0  0  0  0  0  0  0  0  0
   11.8242   -0.0524   25.5891 N   0  0  0  0  0  0  0  0  0  0  0  0
   12.8260    0.4787   24.8607 C   0  0  0  0  0  0  0  0  0  0  0  0
   13.0850   -0.0013   23.5893 C   0  0  0  0  0  0  0  0  0  0  0  0
   12.2983   -1.0276   23.0623 C   0  0  0  0  0  0  0  0  0  0  0  0
   12.5774   -1.5042   21.6571 C   0  0  0  0  0  0  0  0  0  0  0  0
   11.2224   -1.5441   23.8210 C   0  0  0  0  0  0  0  0  0  0  0  0
   10.3115   -2.4457   23.1486 C   0  0  0  0  0  0  0  0  0  0  0  0
    9.5938   -3.1644   22.5924 N   0  0  0  0  0  0  0  0  0  0  0  0
  1  2  3  0
  2  3  1  0
  3  4  1  0
  4  5  1  0
  4  7  1  0
  5  6  1  0
  7  8  2  0
  8  9  1  0
  9 10  2  0
 10 11  1  0
 11 12  1  0
 11 13  2  0
 13 14  1  0
 13  7  1  0
 14 15  3  0
M  END
>  <Hit>  (469) 
Mpro-x0305_0

>  <Receptor>  (469) 
Mpro-x0387_0

>  <SCORE>  (469) 
-12.919

>  <SCORE.norm>  (469) 
-0.861267

>  <SCORE.heavy>  (469) 
15

>  <OrigSmiles>  (469) 
C#CCN(CC)c1nccc(C)c1C#N

>  <SuCOS_Score>  (469) 
0.54527308994762302

>  <Max_SuCOS_Score>  (469) 
0.54527308994762302

>  <Cum_SuCOS_Score>  (469) 
4.388679191383476

>  <TransFSScore_50nM>  (469) 
0.0020920000000000001

>  <TransFSScore_1uM>  (469) 
0.083257999999999999

>  <TransFSScore_10nM>  (469) 
0.00053200000000000003

>  <TransFSScore_200nM>  (469) 
0.01839

>  <TransFSScore>  (469) 
0.026068000000000001

>  <FeatureSteinScore>  (469) 
0.26503427215032987

$$$$
C#CCN(CC12CCC(CC1)N2)C(C)C
     RDKit          3D

 15 16  0  0  0  0  0  0  0  0999 V2000
    8.0580   -5.9660   22.8784 C   0  0  0  0  0  0  0  0  0  0  0  0
    8.6568   -5.4225   23.7723 C   0  0  0  0  0  0  0  0  0  0  0  0
    9.3880   -4.7581   24.8706 C   0  0  0  0  0  0  0  0  0  0  0  0
    8.5904   -3.6790   25.5195 N   0  0  0  0  0  0  0  0  0  0  0  0
    8.1439   -2.7066   24.4666 C   0  0  0  0  0  0  0  0  0  0  0  0
    9.2582   -1.7250   24.0144 C   0  0  2  0  0  0  0  0  0  0  0  0
    9.6938   -0.7118   25.0968 C   0  0  0  0  0  0  0  0  0  0  0  0
   11.0846   -0.3130   24.5883 C   0  0  0  0  0  0  0  0  0  0  0  0
   11.1878   -1.1438   23.3015 C   0  0  2  0  0  0  0  0  0  0  0  0
   10.2730   -0.5108   22.2361 C   0  0  0  0  0  0  0  0  0  0  0  0
    8.8884   -0.9286   22.7402 C   0  0  0  0  0  0  0  0  0  0  0  0
   10.5110   -2.3772   23.6655 N   0  0  0  0  0  0  0  0  0  0  0  0
    7.4095   -4.2026   26.2893 C   0  0  0  0  0  0  0  0  0  0  0  0
    6.6523   -3.0575   27.0042 C   0  0  0  0  0  0  0  0  0  0  0  0
    7.7834   -5.2415   27.3711 C   0  0  0  0  0  0  0  0  0  0  0  0
  1  2  3  0
  2  3  1  0
  3  4  1  0
  4  5  1  0
  4 13  1  0
  6  5  1  1
  6  7  1  0
  7  8  1  0
  9  8  1  1
  9 10  1  0
  9 12  1  0
 10 11  1  0
 11  6  1  0
 12  6  1  0
 13 14  1  0
 13 15  1  0
M  END
>  <Hit>  (470) 
Mpro-x0991_0

>  <Receptor>  (470) 
Mpro-x1249_0

>  <SCORE>  (470) 
-2.7804000000000002

>  <SCORE.norm>  (470) 
-0.18536

>  <SCORE.heavy>  (470) 
15

>  <OrigSmiles>  (470) 
C#CCN(CC12CCC(CC1)N2)C(C)C

>  <SuCOS_Score>  (470) 
0.46063839949673391

>  <Max_SuCOS_Score>  (470) 
0.46063839949673391

>  <Cum_SuCOS_Score>  (470) 
3.876282524045521

>  <TransFSScore_50nM>  (470) 
0.041127999999999998

>  <TransFSScore_1uM>  (470) 
0.060767000000000002

>  <TransFSScore_10nM>  (470) 
0.0098809999999999992

>  <TransFSScore_200nM>  (470) 
0.045164999999999997

>  <TransFSScore>  (470) 
0.039235249999999999

>  <FeatureSteinScore>  (470) 
0.3779154243953125

$$$$
C#CCN(CC1CC1)c1ccc(C#N)cn1
     RDKit          3D

 16 17  0  0  0  0  0  0  0  0999 V2000
    9.8721   -4.2857   28.1866 C   0  0  0  0  0  0  0  0  0  0  0  0
    9.4427   -3.4523   27.4287 C   0  0  0  0  0  0  0  0  0  0  0  0
    8.9179   -2.4338   26.5041 C   0  0  0  0  0  0  0  0  0  0  0  0
    9.9078   -1.3715   26.2741 N   0  0  0  0  0  0  0  0  0  0  0  0
    9.6823   -0.0564   26.9109 C   0  0  0  0  0  0  0  0  0  0  0  0
   10.5758    0.1038   28.1509 C   0  0  0  0  0  0  0  0  0  0  0  0
    9.8521    0.6411   29.3765 C   0  0  0  0  0  0  0  0  0  0  0  0
   10.2794   -0.8163   29.3266 C   0  0  0  0  0  0  0  0  0  0  0  0
   10.8227   -1.4372   25.1530 C   0  0  0  0  0  0  0  0  0  0  0  0
   10.9124   -2.5879   24.3447 C   0  0  0  0  0  0  0  0  0  0  0  0
   11.7067   -2.5664   23.1938 C   0  0  0  0  0  0  0  0  0  0  0  0
   12.3968   -1.4010   22.8468 C   0  0  0  0  0  0  0  0  0  0  0  0
   13.2221   -1.3403   21.6586 C   0  0  0  0  0  0  0  0  0  0  0  0
   13.8857   -1.2788   20.7111 N   0  0  0  0  0  0  0  0  0  0  0  0
   12.2882   -0.2822   23.6741 C   0  0  0  0  0  0  0  0  0  0  0  0
   11.5269   -0.3254   24.7970 N   0  0  0  0  0  0  0  0  0  0  0  0
  1  2  3  0
  2  3  1  0
  3  4  1  0
  4  5  1  0
  4  9  1  0
  5  6  1  0
  6  7  1  0
  7  8  1  0
  8  6  1  0
  9 10  2  0
 10 11  1  0
 11 12  2  0
 12 13  1  0
 12 15  1  0
 13 14  3  0
 15 16  2  0
 16  9  1  0
M  END
>  <Hit>  (471) 
Mpro-x0305_0

>  <Receptor>  (471) 
Mpro-x0387_0

>  <SCORE>  (471) 
-12.315200000000001

>  <SCORE.norm>  (471) 
-0.76969900000000002

>  <SCORE.heavy>  (471) 
16

>  <OrigSmiles>  (471) 
C#CCN(CC1CC1)c1ccc(C#N)cn1

>  <SuCOS_Score>  (471) 
0.58807929308048235

>  <Max_SuCOS_Score>  (471) 
0.58807929308048235

>  <Cum_SuCOS_Score>  (471) 
3.6751408696557211

>  <TransFSScore_50nM>  (471) 
0.022894999999999999

>  <TransFSScore_1uM>  (471) 
0.30429099999999998

>  <TransFSScore_10nM>  (471) 
0.023991999999999999

>  <TransFSScore_200nM>  (471) 
0.36638799999999999

>  <TransFSScore>  (471) 
0.17939149999999998

>  <FeatureSteinScore>  (471) 
0.19825877520712684

$$$$
C#CCN(CC1CC2CCC1N2)C(C)C
     RDKit          3D

 15 16  0  0  0  0  0  0  0  0999 V2000
    7.3743   -5.3724   21.9000 C   0  0  0  0  0  0  0  0  0  0  0  0
    7.9776   -5.2879   22.9402 C   0  0  0  0  0  0  0  0  0  0  0  0
    8.7167   -5.1858   24.2138 C   0  0  0  0  0  0  0  0  0  0  0  0
    8.1071   -4.1926   25.1420 N   0  0  0  0  0  0  0  0  0  0  0  0
    8.7196   -2.8464   24.9555 C   0  0  0  0  0  0  0  0  0  0  0  0
    8.4831   -2.2893   23.5261 C   0  0  1  0  0  0  0  0  0  0  0  0
    8.5651   -0.7526   23.4308 C   0  0  0  0  0  0  0  0  0  0  0  0
    9.5889   -0.5776   22.2982 C   0  0  1  0  0  0  0  0  0  0  0  0
   10.9936   -0.8770   22.8543 C   0  0  0  0  0  0  0  0  0  0  0  0
   10.9640   -2.4042   22.9407 C   0  0  0  0  0  0  0  0  0  0  0  0
    9.5276   -2.7070   22.4655 C   0  0  2  0  0  0  0  0  0  0  0  0
    9.3000   -1.7102   21.4336 N   0  0  0  0  0  0  0  0  0  0  0  0
    8.1417   -4.6058   26.5830 C   0  0  0  0  0  0  0  0  0  0  0  0
    7.1117   -5.7026   26.9050 C   0  0  0  0  0  0  0  0  0  0  0  0
    9.5393   -5.0239   27.0938 C   0  0  0  0  0  0  0  0  0  0  0  0
  1  2  3  0
  2  3  1  0
  3  4  1  0
  4  5  1  0
  4 13  1  0
  6  5  1  1
  6  7  1  0
  8  7  1  1
  8  9  1  0
  9 10  1  0
 11 10  1  1
 11 12  1  0
 11  6  1  0
 12  8  1  0
 13 14  1  0
 13 15  1  0
M  END
>  <Hit>  (472) 
Mpro-x0991_0

>  <Receptor>  (472) 
Mpro-x1249_0

>  <SCORE>  (472) 
-6.2571099999999999

>  <SCORE.norm>  (472) 
-0.41714099999999998

>  <SCORE.heavy>  (472) 
15

>  <OrigSmiles>  (472) 
C#CCN(CC1CC2CCC1N2)C(C)C

>  <SuCOS_Score>  (472) 
0.47048915627645405

>  <Max_SuCOS_Score>  (472) 
0.47048915627645405

>  <Cum_SuCOS_Score>  (472) 
3.5482683970754376

>  <TransFSScore_50nM>  (472) 
0.015762999999999999

>  <TransFSScore_1uM>  (472) 
0.052642000000000001

>  <TransFSScore_10nM>  (472) 
0.016847000000000001

>  <TransFSScore_200nM>  (472) 
0.067487000000000005

>  <TransFSScore>  (472) 
0.038184750000000003

>  <FeatureSteinScore>  (472) 
0.39886036706818256

$$$$
C#CCN(CC=C)CC12CCC(CC1)N2
     RDKit          3D

 15 16  0  0  0  0  0  0  0  0999 V2000
    7.9998   -5.0719   22.7769 C   0  0  0  0  0  0  0  0  0  0  0  0
    8.7723   -5.1468   23.6993 C   0  0  0  0  0  0  0  0  0  0  0  0
    9.7176   -5.2376   24.8305 C   0  0  0  0  0  0  0  0  0  0  0  0
    9.3998   -4.2697   25.9063 N   0  0  0  0  0  0  0  0  0  0  0  0
    9.5605   -4.9225   27.2363 C   0  0  0  0  0  0  0  0  0  0  0  0
    8.9763   -4.0968   28.3581 C   0  0  0  0  0  0  0  0  0  0  0  0
    7.9904   -4.5591   29.1322 C   0  0  0  0  0  0  0  0  0  0  0  0
   10.2814   -3.0684   25.8365 C   0  0  0  0  0  0  0  0  0  0  0  0
   10.3589   -2.3316   24.4619 C   0  0  1  0  0  0  0  0  0  0  0  0
    9.0205   -1.9783   23.7722 C   0  0  0  0  0  0  0  0  0  0  0  0
    9.4797   -1.7683   22.3224 C   0  0  0  0  0  0  0  0  0  0  0  0
   10.9878   -2.0360   22.4342 C   0  0  1  0  0  0  0  0  0  0  0  0
   11.6449   -0.8279   23.1197 C   0  0  0  0  0  0  0  0  0  0  0  0
   11.1946   -1.0289   24.5678 C   0  0  0  0  0  0  0  0  0  0  0  0
   11.0534   -3.0906   23.4325 N   0  0  0  0  0  0  0  0  0  0  0  0
  1  2  3  0
  2  3  1  0
  3  4  1  0
  4  5  1  0
  4  8  1  0
  5  6  1  0
  6  7  2  0
  9  8  1  1
  9 10  1  0
 10 11  1  0
 12 11  1  1
 12 13  1  0
 12 15  1  0
 13 14  1  0
 14  9  1  0
 15  9  1  0
M  END
>  <Hit>  (473) 
Mpro-x0991_0

>  <Receptor>  (473) 
Mpro-x0387_0

>  <SCORE>  (473) 
-3.63401

>  <SCORE.norm>  (473) 
-0.24226700000000001

>  <SCORE.heavy>  (473) 
15

>  <OrigSmiles>  (473) 
C#CCN(CC=C)CC12CCC(CC1)N2

>  <SuCOS_Score>  (473) 
0.49059183648034282

>  <Max_SuCOS_Score>  (473) 
0.49059183648034282

>  <Cum_SuCOS_Score>  (473) 
3.5767401009651589

>  <TransFSScore_50nM>  (473) 
0.029111999999999999

>  <TransFSScore_1uM>  (473) 
0.11215899999999999

>  <TransFSScore_10nM>  (473) 
0.001116

>  <TransFSScore_200nM>  (473) 
0.012794

>  <TransFSScore>  (473) 
0.038795249999999996

>  <FeatureSteinScore>  (473) 
0.1666523821756182

$$$$
C#CCN(CC=C)CC1CC2CCC1N2
     RDKit          3D

 15 16  0  0  0  0  0  0  0  0999 V2000
    7.8387   -6.2238   27.8502 C   0  0  0  0  0  0  0  0  0  0  0  0
    7.5720   -5.2351   27.2142 C   0  0  0  0  0  0  0  0  0  0  0  0
    7.2449   -4.0241   26.4362 C   0  0  0  0  0  0  0  0  0  0  0  0
    8.4455   -3.2339   26.0504 N   0  0  0  0  0  0  0  0  0  0  0  0
    9.2879   -3.9669   25.0712 C   0  0  0  0  0  0  0  0  0  0  0  0
    8.5815   -4.2090   23.7580 C   0  0  0  0  0  0  0  0  0  0  0  0
    8.3056   -5.4386   23.3147 C   0  0  0  0  0  0  0  0  0  0  0  0
    8.0564   -1.8934   25.5200 C   0  0  0  0  0  0  0  0  0  0  0  0
    9.0112   -0.7023   25.8615 C   0  0  2  0  0  0  0  0  0  0  0  0
    8.6070    0.7544   25.5291 C   0  0  0  0  0  0  0  0  0  0  0  0
    9.8809    1.2648   24.8230 C   0  0  2  0  0  0  0  0  0  0  0  0
    9.9118    0.6735   23.4011 C   0  0  0  0  0  0  0  0  0  0  0  0
   10.3201   -0.7783   23.6867 C   0  0  0  0  0  0  0  0  0  0  0  0
   10.4234   -0.7702   25.2244 C   0  0  1  0  0  0  0  0  0  0  0  0
   10.9564    0.5557   25.4996 N   0  0  0  0  0  0  0  0  0  0  0  0
  1  2  3  0
  2  3  1  0
  3  4  1  0
  4  5  1  0
  4  8  1  0
  5  6  1  0
  6  7  2  0
  9  8  1  6
  9 10  1  0
 11 10  1  1
 11 12  1  0
 12 13  1  0
 14 13  1  6
 14 15  1  0
 14  9  1  0
 15 11  1  0
M  END
>  <Hit>  (474) 
Mpro-x0991_0

>  <Receptor>  (474) 
Mpro-x0874_0

>  <SCORE>  (474) 
-6.6661900000000003

>  <SCORE.norm>  (474) 
-0.444413

>  <SCORE.heavy>  (474) 
15

>  <OrigSmiles>  (474) 
C#CCN(CC=C)CC1CC2CCC1N2

>  <SuCOS_Score>  (474) 
0.44320642394316501

>  <Max_SuCOS_Score>  (474) 
0.44320642394316501

>  <Cum_SuCOS_Score>  (474) 
3.3184898504697453

>  <TransFSScore_50nM>  (474) 
0.0097579999999999993

>  <TransFSScore_1uM>  (474) 
0.111314

>  <TransFSScore_10nM>  (474) 
0.0075170000000000002

>  <TransFSScore_200nM>  (474) 
0.063880000000000006

>  <TransFSScore>  (474) 
0.04811725

>  <FeatureSteinScore>  (474) 
0.3896225814794439

$$$$
C#CCN(CC=C)C[C@@H]1C[C@@H]2CC[C@H]1N2
     RDKit          3D

 15 16  0  0  0  0  0  0  0  0999 V2000
    7.5106   -6.2784   28.3172 C   0  0  0  0  0  0  0  0  0  0  0  0
    8.2716   -5.8270   27.4987 C   0  0  0  0  0  0  0  0  0  0  0  0
    9.2019   -5.2726   26.4975 C   0  0  0  0  0  0  0  0  0  0  0  0
    8.5269   -4.3739   25.5349 N   0  0  0  0  0  0  0  0  0  0  0  0
    8.4964   -4.9424   24.1673 C   0  0  0  0  0  0  0  0  0  0  0  0
    7.3387   -4.3877   23.3851 C   0  0  0  0  0  0  0  0  0  0  0  0
    7.5228   -3.7617   22.2198 C   0  0  0  0  0  0  0  0  0  0  0  0
    9.0876   -3.0015   25.5797 C   0  0  0  0  0  0  0  0  0  0  0  0
    8.7139   -2.2817   26.8929 C   0  0  2  0  0  0  0  0  0  0  0  0
    7.2590   -1.7734   26.9175 C   0  0  0  0  0  0  0  0  0  0  0  0
    7.4632   -0.2995   27.3008 C   0  0  2  0  0  0  0  0  0  0  0  0
    7.9867    0.4626   26.0686 C   0  0  0  0  0  0  0  0  0  0  0  0
    9.4464    0.0061   26.0298 C   0  0  0  0  0  0  0  0  0  0  0  0
    9.4868   -0.9795   27.2151 C   0  0  1  0  0  0  0  0  0  0  0  0
    8.6087   -0.3619   28.1934 N   0  0  0  0  0  0  0  0  0  0  0  0
  1  2  3  0
  2  3  1  0
  3  4  1  0
  4  5  1  0
  4  8  1  0
  5  6  1  0
  6  7  2  0
  9  8  1  6
  9 10  1  0
 11 10  1  6
 11 12  1  0
 12 13  1  0
 14 13  1  6
 14 15  1  0
 14  9  1  0
 15 11  1  0
M  END
>  <Hit>  (475) 
Mpro-x0991_0

>  <Receptor>  (475) 
Mpro-x1249_0

>  <SCORE>  (475) 
-4.5094099999999999

>  <SCORE.norm>  (475) 
-0.30062699999999998

>  <SCORE.heavy>  (475) 
15

>  <OrigSmiles>  (475) 
C#CCN(CC=C)C[C@@H]1C[C@@H]2CC[C@H]1N2

>  <SuCOS_Score>  (475) 
0.49321655465707775

>  <Max_SuCOS_Score>  (475) 
0.49321655465707775

>  <Cum_SuCOS_Score>  (475) 
2.072212199724274

>  <TransFSScore_50nM>  (475) 
0.0044349999999999997

>  <TransFSScore_1uM>  (475) 
0.094287999999999997

>  <TransFSScore_10nM>  (475) 
0.0042339999999999999

>  <TransFSScore_200nM>  (475) 
0.024170000000000001

>  <TransFSScore>  (475) 
0.031781749999999998

>  <FeatureSteinScore>  (475) 
0.33918026637432092

$$$$
C#CCN(CCC)C(=O)c1ccc2[nH]ccc2c1
     RDKit          3D

 18 19  0  0  0  0  0  0  0  0999 V2000
   14.5027   -0.9001   20.0383 C   0  0  0  0  0  0  0  0  0  0  0  0
   13.7124   -1.3378   20.8361 C   0  0  0  0  0  0  0  0  0  0  0  0
   12.7516   -1.8665   21.8092 C   0  0  0  0  0  0  0  0  0  0  0  0
   12.1450   -0.7601   22.5613 N   0  0  0  0  0  0  0  0  0  0  0  0
   10.8684   -0.9723   23.2638 C   0  0  0  0  0  0  0  0  0  0  0  0
    9.7509   -1.3796   22.2918 C   0  0  0  0  0  0  0  0  0  0  0  0
    8.4187   -1.5345   23.0194 C   0  0  0  0  0  0  0  0  0  0  0  0
   12.9358    0.4165   22.8373 C   0  0  0  0  0  0  0  0  0  0  0  0
   14.1812    0.3048   23.0037 O   0  0  0  0  0  0  0  0  0  0  0  0
   12.3212    1.7575   22.9326 C   0  0  0  0  0  0  0  0  0  0  0  0
   10.9680    1.9458   22.5557 C   0  0  0  0  0  0  0  0  0  0  0  0
   10.3698    3.2173   22.6457 C   0  0  0  0  0  0  0  0  0  0  0  0
   11.1444    4.2785   23.1234 C   0  0  0  0  0  0  0  0  0  0  0  0
   10.7764    5.5630   23.2904 N   0  0  0  0  0  0  0  0  0  0  0  0
   11.8619    6.2083   23.7768 C   0  0  0  0  0  0  0  0  0  0  0  0
   12.9270    5.3253   23.9211 C   0  0  0  0  0  0  0  0  0  0  0  0
   12.4466    4.0998   23.4979 C   0  0  0  0  0  0  0  0  0  0  0  0
   13.0675    2.8524   23.4228 C   0  0  0  0  0  0  0  0  0  0  0  0
  1  2  3  0
  2  3  1  0
  3  4  1  0
  4  5  1  0
  4  8  1  0
  5  6  1  0
  6  7  1  0
  8  9  2  0
  8 10  1  0
 10 11  2  0
 11 12  1  0
 12 13  2  0
 13 14  1  0
 14 15  1  0
 15 16  2  0
 16 17  1  0
 17 18  2  0
 17 13  1  0
 18 10  1  0
M  END
>  <Hit>  (476) 
Mpro-x0104_0

>  <Receptor>  (476) 
Mpro-x1249_0

>  <SCORE>  (476) 
-10.0069

>  <SCORE.norm>  (476) 
-0.55593899999999996

>  <SCORE.heavy>  (476) 
18

>  <OrigSmiles>  (476) 
C#CCN(CCC)C(=O)c1ccc2[nH]ccc2c1

>  <SuCOS_Score>  (476) 
0.4291539759090835

>  <Max_SuCOS_Score>  (476) 
0.48801303154187342

>  <Cum_SuCOS_Score>  (476) 
4.5857216316138256

>  <TransFSScore_50nM>  (476) 
0.012356000000000001

>  <TransFSScore_1uM>  (476) 
0.16154299999999999

>  <TransFSScore_10nM>  (476) 
0.0040619999999999996

>  <TransFSScore_200nM>  (476) 
0.25720500000000002

>  <TransFSScore>  (476) 
0.10879150000000001

>  <FeatureSteinScore>  (476) 
0.40629263280998301

$$$$
C#CCN(CCC)CC12CCC(CC1)N2
     RDKit          3D

 15 16  0  0  0  0  0  0  0  0999 V2000
   10.9780   -5.3376   25.9584 C   0  0  0  0  0  0  0  0  0  0  0  0
   10.4232   -4.8751   26.9236 C   0  0  0  0  0  0  0  0  0  0  0  0
    9.7469   -4.3123   28.1052 C   0  0  0  0  0  0  0  0  0  0  0  0
    8.4457   -3.6719   27.7725 N   0  0  0  0  0  0  0  0  0  0  0  0
    7.3821   -4.6428   27.4035 C   0  0  0  0  0  0  0  0  0  0  0  0
    7.5412   -5.2846   26.0047 C   0  0  0  0  0  0  0  0  0  0  0  0
    7.2855   -4.2744   24.8894 C   0  0  0  0  0  0  0  0  0  0  0  0
    7.9727   -2.7591   28.8514 C   0  0  0  0  0  0  0  0  0  0  0  0
    8.5864   -1.3215   28.8338 C   0  0  2  0  0  0  0  0  0  0  0  0
   10.1138   -1.2909   29.0802 C   0  0  0  0  0  0  0  0  0  0  0  0
   10.4908    0.0630   28.4675 C   0  0  0  0  0  0  0  0  0  0  0  0
    9.1183    0.5913   28.0301 C   0  0  2  0  0  0  0  0  0  0  0  0
    8.3293    1.0056   29.2861 C   0  0  0  0  0  0  0  0  0  0  0  0
    7.9339   -0.3592   29.8590 C   0  0  0  0  0  0  0  0  0  0  0  0
    8.4485   -0.6127   27.5692 N   0  0  0  0  0  0  0  0  0  0  0  0
  1  2  3  0
  2  3  1  0
  3  4  1  0
  4  5  1  0
  4  8  1  0
  5  6  1  0
  6  7  1  0
  9  8  1  6
  9 10  1  0
 10 11  1  0
 12 11  1  1
 12 13  1  0
 12 15  1  0
 13 14  1  0
 14  9  1  0
 15  9  1  0
M  END
>  <Hit>  (477) 
Mpro-x0991_0

>  <Receptor>  (477) 
Mpro-x0387_0

>  <SCORE>  (477) 
-3.6564199999999998

>  <SCORE.norm>  (477) 
-0.24376100000000001

>  <SCORE.heavy>  (477) 
15

>  <OrigSmiles>  (477) 
C#CCN(CCC)CC12CCC(CC1)N2

>  <SuCOS_Score>  (477) 
0.29392037460058912

>  <Max_SuCOS_Score>  (477) 
0.29392037460058912

>  <Cum_SuCOS_Score>  (477) 
1.249085400885654

>  <TransFSScore_50nM>  (477) 
0.024967

>  <TransFSScore_1uM>  (477) 
0.020226000000000001

>  <TransFSScore_10nM>  (477) 
0.00088999999999999995

>  <TransFSScore_200nM>  (477) 
0.0068580000000000004

>  <TransFSScore>  (477) 
0.01323525

>  <FeatureSteinScore>  (477) 
0.1227812137272762

$$$$
C#CCN(CCC)CC1CC2CCC1N2
     RDKit          3D

 15 16  0  0  0  0  0  0  0  0999 V2000
    7.5063   -6.3613   28.0668 C   0  0  0  0  0  0  0  0  0  0  0  0
    8.2795   -5.5964   27.5464 C   0  0  0  0  0  0  0  0  0  0  0  0
    9.2330   -4.6624   26.9252 C   0  0  0  0  0  0  0  0  0  0  0  0
    8.7771   -4.2120   25.5831 N   0  0  0  0  0  0  0  0  0  0  0  0
    9.0325   -5.2445   24.5492 C   0  0  0  0  0  0  0  0  0  0  0  0
    7.9876   -5.2858   23.4073 C   0  0  0  0  0  0  0  0  0  0  0  0
    8.0666   -4.0441   22.5234 C   0  0  0  0  0  0  0  0  0  0  0  0
    9.3433   -2.8932   25.1757 C   0  0  0  0  0  0  0  0  0  0  0  0
    8.4309   -1.6849   25.5380 C   0  0  1  0  0  0  0  0  0  0  0  0
    7.8341   -1.7781   26.9645 C   0  0  0  0  0  0  0  0  0  0  0  0
    8.4274   -0.5298   27.6331 C   0  0  2  0  0  0  0  0  0  0  0  0
    7.6939    0.7118   27.0957 C   0  0  0  0  0  0  0  0  0  0  0  0
    8.2812    0.8193   25.6872 C   0  0  0  0  0  0  0  0  0  0  0  0
    9.2511   -0.3785   25.6694 C   0  0  1  0  0  0  0  0  0  0  0  0
    9.7460   -0.4514   27.0327 N   0  0  0  0  0  0  0  0  0  0  0  0
  1  2  3  0
  2  3  1  0
  3  4  1  0
  4  5  1  0
  4  8  1  0
  5  6  1  0
  6  7  1  0
  9  8  1  1
  9 10  1  0
 11 10  1  6
 11 12  1  0
 12 13  1  0
 14 13  1  1
 14 15  1  0
 14  9  1  0
 15 11  1  0
M  END
>  <Hit>  (478) 
Mpro-x0991_0

>  <Receptor>  (478) 
Mpro-x1249_0

>  <SCORE>  (478) 
-5.88523

>  <SCORE.norm>  (478) 
-0.392349

>  <SCORE.heavy>  (478) 
15

>  <OrigSmiles>  (478) 
C#CCN(CCC)CC1CC2CCC1N2

>  <SuCOS_Score>  (478) 
0.51682735948136482

>  <Max_SuCOS_Score>  (478) 
0.51682735948136482

>  <Cum_SuCOS_Score>  (478) 
2.2968999541012747

>  <TransFSScore_50nM>  (478) 
0.0071190000000000003

>  <TransFSScore_1uM>  (478) 
0.060229999999999999

>  <TransFSScore_10nM>  (478) 
0.0039880000000000002

>  <TransFSScore_200nM>  (478) 
0.019491999999999999

>  <TransFSScore>  (478) 
0.022707249999999998

>  <FeatureSteinScore>  (478) 
0.28632640604170195

$$$$
C#CCN(CCC)C[C@@H]1C[C@@H]2CC[C@H]1N2
     RDKit          3D

 15 16  0  0  0  0  0  0  0  0999 V2000
   10.4744   -5.8906   25.8686 C   0  0  0  0  0  0  0  0  0  0  0  0
    9.7311   -4.9986   26.1929 C   0  0  0  0  0  0  0  0  0  0  0  0
    8.8171   -3.9128   26.5894 C   0  0  0  0  0  0  0  0  0  0  0  0
    8.3282   -3.1356   25.4210 N   0  0  0  0  0  0  0  0  0  0  0  0
    7.3073   -3.9283   24.6874 C   0  0  0  0  0  0  0  0  0  0  0  0
    7.8432   -4.5261   23.3676 C   0  0  0  0  0  0  0  0  0  0  0  0
    8.1621   -3.4357   22.3473 C   0  0  0  0  0  0  0  0  0  0  0  0
    7.7369   -1.8410   25.8668 C   0  0  0  0  0  0  0  0  0  0  0  0
    8.7552   -0.7276   26.2923 C   0  0  2  0  0  0  0  0  0  0  0  0
    8.3152    0.7549   26.4157 C   0  0  0  0  0  0  0  0  0  0  0  0
    9.4282    1.4689   25.6204 C   0  0  2  0  0  0  0  0  0  0  0  0
    9.1518    1.2574   24.1215 C   0  0  0  0  0  0  0  0  0  0  0  0
    9.5653   -0.2086   23.9444 C   0  0  0  0  0  0  0  0  0  0  0  0
    9.9980   -0.5840   25.3771 C   0  0  1  0  0  0  0  0  0  0  0  0
   10.6051    0.6473   25.8592 N   0  0  0  0  0  0  0  0  0  0  0  0
  1  2  3  0
  2  3  1  0
  3  4  1  0
  4  5  1  0
  4  8  1  0
  5  6  1  0
  6  7  1  0
  9  8  1  6
  9 10  1  0
 11 10  1  1
 11 12  1  0
 12 13  1  0
 14 13  1  6
 14 15  1  0
 14  9  1  0
 15 11  1  0
M  END
>  <Hit>  (479) 
Mpro-x0991_0

>  <Receptor>  (479) 
Mpro-x1249_0

>  <SCORE>  (479) 
-5.7085100000000004

>  <SCORE.norm>  (479) 
-0.38056699999999999

>  <SCORE.heavy>  (479) 
15

>  <OrigSmiles>  (479) 
C#CCN(CCC)C[C@@H]1C[C@@H]2CC[C@H]1N2

>  <SuCOS_Score>  (479) 
0.50544049409013059

>  <Max_SuCOS_Score>  (479) 
0.50544049409013059

>  <Cum_SuCOS_Score>  (479) 
3.0765238593775295

>  <TransFSScore_50nM>  (479) 
0.022620999999999999

>  <TransFSScore_1uM>  (479) 
0.112668

>  <TransFSScore_10nM>  (479) 
0.010807000000000001

>  <TransFSScore_200nM>  (479) 
0.079768000000000006

>  <TransFSScore>  (479) 
0.056466000000000002

>  <FeatureSteinScore>  (479) 
0.38216113665398516

$$$$
C#CCN(CCC)c1nccc(C)c1C#N
     RDKit          3D

 16 16  0  0  0  0  0  0  0  0999 V2000
    9.9113   -4.2193   28.3194 C   0  0  0  0  0  0  0  0  0  0  0  0
    9.8500   -3.6757   27.2452 C   0  0  0  0  0  0  0  0  0  0  0  0
    9.7778   -3.0045   25.9307 C   0  0  0  0  0  0  0  0  0  0  0  0
    9.9291   -1.5170   26.0357 N   0  0  0  0  0  0  0  0  0  0  0  0
    8.6423   -0.7799   25.9124 C   0  0  0  0  0  0  0  0  0  0  0  0
    8.2389    0.0629   27.1422 C   0  0  0  0  0  0  0  0  0  0  0  0
    6.9047    0.8110   27.0232 C   0  0  0  0  0  0  0  0  0  0  0  0
   11.0048   -1.0735   25.1362 C   0  0  0  0  0  0  0  0  0  0  0  0
   11.8139   -0.0800   25.6022 N   0  0  0  0  0  0  0  0  0  0  0  0
   12.8332    0.4546   24.9042 C   0  0  0  0  0  0  0  0  0  0  0  0
   13.1039    0.0039   23.6260 C   0  0  0  0  0  0  0  0  0  0  0  0
   12.3072   -0.9931   23.0586 C   0  0  0  0  0  0  0  0  0  0  0  0
   12.6008   -1.4349   21.6448 C   0  0  0  0  0  0  0  0  0  0  0  0
   11.2176   -1.5219   23.7904 C   0  0  0  0  0  0  0  0  0  0  0  0
   10.3211   -2.4110   23.0828 C   0  0  0  0  0  0  0  0  0  0  0  0
    9.6155   -3.1196   22.4990 N   0  0  0  0  0  0  0  0  0  0  0  0
  1  2  3  0
  2  3  1  0
  3  4  1  0
  4  5  1  0
  4  8  1  0
  5  6  1  0
  6  7  1  0
  8  9  2  0
  9 10  1  0
 10 11  2  0
 11 12  1  0
 12 13  1  0
 12 14  2  0
 14 15  1  0
 14  8  1  0
 15 16  3  0
M  END
>  <Hit>  (480) 
Mpro-x0305_0

>  <Receptor>  (480) 
Mpro-x0387_0

>  <SCORE>  (480) 
-12.996700000000001

>  <SCORE.norm>  (480) 
-0.81229200000000001

>  <SCORE.heavy>  (480) 
16

>  <OrigSmiles>  (480) 
C#CCN(CCC)c1nccc(C)c1C#N

>  <SuCOS_Score>  (480) 
0.54480220167246529

>  <Max_SuCOS_Score>  (480) 
0.54480220167246529

>  <Cum_SuCOS_Score>  (480) 
4.3379257527370303

>  <TransFSScore_50nM>  (480) 
0.0015460000000000001

>  <TransFSScore_1uM>  (480) 
0.090130000000000002

>  <TransFSScore_10nM>  (480) 
0.00069300000000000004

>  <TransFSScore_200nM>  (480) 
0.01323

>  <TransFSScore>  (480) 
0.026399750000000003

>  <FeatureSteinScore>  (480) 
0.22528287222345655

$$$$
C#CCN(CCCNCc1ccccc1)C1CCC1
     RDKit          3D

 19 20  0  0  0  0  0  0  0  0999 V2000
    7.7707   -0.0719   18.3488 C   0  0  0  0  0  0  0  0  0  0  0  0
    6.9411   -0.6342   19.0185 C   0  0  0  0  0  0  0  0  0  0  0  0
    5.9251   -1.3224   19.8325 C   0  0  0  0  0  0  0  0  0  0  0  0
    6.4231   -1.6429   21.2025 N   0  0  0  0  0  0  0  0  0  0  0  0
    5.6209   -2.7410   21.8108 C   0  0  0  0  0  0  0  0  0  0  0  0
    6.3518   -3.5483   22.9198 C   0  0  0  0  0  0  0  0  0  0  0  0
    7.6212   -4.2511   22.4191 C   0  0  0  0  0  0  0  0  0  0  0  0
    8.7312   -3.2966   22.3085 N   0  0  0  0  0  0  0  0  0  0  0  0
    9.4465   -3.1918   23.5842 C   0  0  0  0  0  0  0  0  0  0  0  0
   10.5343   -2.1613   23.4688 C   0  0  0  0  0  0  0  0  0  0  0  0
   11.3555   -2.1237   22.3318 C   0  0  0  0  0  0  0  0  0  0  0  0
   12.3617   -1.1615   22.2237 C   0  0  0  0  0  0  0  0  0  0  0  0
   12.5453   -0.2237   23.2425 C   0  0  0  0  0  0  0  0  0  0  0  0
   11.7195   -0.2437   24.3692 C   0  0  0  0  0  0  0  0  0  0  0  0
   10.7131   -1.2064   24.4820 C   0  0  0  0  0  0  0  0  0  0  0  0
    6.4471   -0.4329   22.0722 C   0  0  0  0  0  0  0  0  0  0  0  0
    7.2127   -0.6160   23.3908 C   0  0  0  0  0  0  0  0  0  0  0  0
    8.1898    0.4743   22.9824 C   0  0  0  0  0  0  0  0  0  0  0  0
    7.4728    0.6274   21.6505 C   0  0  0  0  0  0  0  0  0  0  0  0
  1  2  3  0
  2  3  1  0
  3  4  1  0
  4  5  1  0
  4 16  1  0
  5  6  1  0
  6  7  1  0
  7  8  1  0
  8  9  1  0
  9 10  1  0
 10 11  2  0
 11 12  1  0
 12 13  2  0
 13 14  1  0
 14 15  2  0
 15 10  1  0
 16 17  1  0
 17 18  1  0
 18 19  1  0
 19 16  1  0
M  END
>  <Hit>  (481) 
Mpro-x0072_0

>  <Receptor>  (481) 
Mpro-x0387_0

>  <SCORE>  (481) 
-11.0784

>  <SCORE.norm>  (481) 
-0.58307299999999995

>  <SCORE.heavy>  (481) 
19

>  <OrigSmiles>  (481) 
C#CCN(CCCNCc1ccccc1)C1CCC1

>  <SuCOS_Score>  (481) 
0.34428998320777821

>  <Max_SuCOS_Score>  (481) 
0.36274549588578964

>  <Cum_SuCOS_Score>  (481) 
5.2993677075794725

>  <TransFSScore_50nM>  (481) 
0.012903

>  <TransFSScore_1uM>  (481) 
0.136188

>  <TransFSScore_10nM>  (481) 
0.0026640000000000001

>  <TransFSScore_200nM>  (481) 
0.10489

>  <TransFSScore>  (481) 
0.064161250000000003

>  <FeatureSteinScore>  (481) 
0.32163099572893317

$$$$
C#CCN(CCCOCc1ccccc1)C1CCC1
     RDKit          3D

 19 20  0  0  0  0  0  0  0  0999 V2000
    5.6003   -3.9112   20.3369 C   0  0  0  0  0  0  0  0  0  0  0  0
    5.6658   -2.7916   19.8950 C   0  0  0  0  0  0  0  0  0  0  0  0
    5.7458   -1.4205   19.3540 C   0  0  0  0  0  0  0  0  0  0  0  0
    5.5675   -0.3698   20.3921 N   0  0  0  0  0  0  0  0  0  0  0  0
    6.6779   -0.4095   21.3953 C   0  0  0  0  0  0  0  0  0  0  0  0
    6.5165   -1.5469   22.4231 C   0  0  0  0  0  0  0  0  0  0  0  0
    7.5163   -1.4416   23.5818 C   0  0  0  0  0  0  0  0  0  0  0  0
    8.8362   -1.3650   23.0768 O   0  0  0  0  0  0  0  0  0  0  0  0
    9.7750   -1.3977   24.1318 C   0  0  0  0  0  0  0  0  0  0  0  0
   11.1454   -1.1607   23.5680 C   0  0  0  0  0  0  0  0  0  0  0  0
   11.6417   -1.9947   22.5543 C   0  0  0  0  0  0  0  0  0  0  0  0
   12.9285   -1.7970   22.0489 C   0  0  0  0  0  0  0  0  0  0  0  0
   13.7306   -0.7733   22.5584 C   0  0  0  0  0  0  0  0  0  0  0  0
   13.2481    0.0523   23.5771 C   0  0  0  0  0  0  0  0  0  0  0  0
   11.9621   -0.1438   24.0870 C   0  0  0  0  0  0  0  0  0  0  0  0
    5.4383    0.9843   19.7829 C   0  0  0  0  0  0  0  0  0  0  0  0
    4.9094    2.0478   20.7534 C   0  0  0  0  0  0  0  0  0  0  0  0
    3.6815    2.2443   19.8780 C   0  0  0  0  0  0  0  0  0  0  0  0
    4.1808    1.1699   18.9238 C   0  0  0  0  0  0  0  0  0  0  0  0
  1  2  3  0
  2  3  1  0
  3  4  1  0
  4  5  1  0
  4 16  1  0
  5  6  1  0
  6  7  1  0
  7  8  1  0
  8  9  1  0
  9 10  1  0
 10 11  2  0
 11 12  1  0
 12 13  2  0
 13 14  1  0
 14 15  2  0
 15 10  1  0
 16 17  1  0
 17 18  1  0
 18 19  1  0
 19 16  1  0
M  END
>  <Hit>  (482) 
Mpro-x0072_0

>  <Receptor>  (482) 
Mpro-x0387_0

>  <SCORE>  (482) 
-10.34

>  <SCORE.norm>  (482) 
-0.54421299999999995

>  <SCORE.heavy>  (482) 
19

>  <OrigSmiles>  (482) 
C#CCN(CCCOCc1ccccc1)C1CCC1

>  <SuCOS_Score>  (482) 
0.38227050956464814

>  <Max_SuCOS_Score>  (482) 
0.46865408691116583

>  <Cum_SuCOS_Score>  (482) 
5.7247191366705303

>  <TransFSScore_50nM>  (482) 
0.038800000000000001

>  <TransFSScore_1uM>  (482) 
0.53081

>  <TransFSScore_10nM>  (482) 
0.14274100000000001

>  <TransFSScore_200nM>  (482) 
0.41748800000000003

>  <TransFSScore>  (482) 
0.28245975000000001

>  <FeatureSteinScore>  (482) 
0.24388627635971324

$$$$
C#CCN(CCNCc1ccccc1)C1CCC1
     RDKit          3D

 18 19  0  0  0  0  0  0  0  0999 V2000
    6.1379   -1.7900   17.5996 C   0  0  0  0  0  0  0  0  0  0  0  0
    5.8740   -0.6566   17.9141 C   0  0  0  0  0  0  0  0  0  0  0  0
    5.5505    0.7304   18.2996 C   0  0  0  0  0  0  0  0  0  0  0  0
    5.6360    0.9649   19.7642 N   0  0  0  0  0  0  0  0  0  0  0  0
    7.0393    1.1815   20.1958 C   0  0  0  0  0  0  0  0  0  0  0  0
    7.8263   -0.1349   20.0792 C   0  0  0  0  0  0  0  0  0  0  0  0
    9.2524    0.0267   20.4173 N   0  0  0  0  0  0  0  0  0  0  0  0
    9.4906   -0.0165   21.8695 C   0  0  0  0  0  0  0  0  0  0  0  0
   10.9640    0.0916   22.1636 C   0  0  0  0  0  0  0  0  0  0  0  0
   11.8708   -0.7924   21.5594 C   0  0  0  0  0  0  0  0  0  0  0  0
   13.2331   -0.7123   21.8552 C   0  0  0  0  0  0  0  0  0  0  0  0
   13.6970    0.2440   22.7616 C   0  0  0  0  0  0  0  0  0  0  0  0
   12.7985    1.1195   23.3762 C   0  0  0  0  0  0  0  0  0  0  0  0
   11.4344    1.0409   23.0844 C   0  0  0  0  0  0  0  0  0  0  0  0
    4.7442    2.0586   20.2217 C   0  0  0  0  0  0  0  0  0  0  0  0
    3.2859    1.8875   19.7826 C   0  0  0  0  0  0  0  0  0  0  0  0
    2.8536    1.7727   21.2354 C   0  0  0  0  0  0  0  0  0  0  0  0
    4.3016    1.8947   21.6792 C   0  0  0  0  0  0  0  0  0  0  0  0
  1  2  3  0
  2  3  1  0
  3  4  1  0
  4  5  1  0
  4 15  1  0
  5  6  1  0
  6  7  1  0
  7  8  1  0
  8  9  1  0
  9 10  2  0
 10 11  1  0
 11 12  2  0
 12 13  1  0
 13 14  2  0
 14  9  1  0
 15 16  1  0
 16 17  1  0
 17 18  1  0
 18 15  1  0
M  END
>  <Hit>  (483) 
Mpro-x0072_0

>  <Receptor>  (483) 
Mpro-x1249_0

>  <SCORE>  (483) 
-13.3531

>  <SCORE.norm>  (483) 
-0.74184099999999997

>  <SCORE.heavy>  (483) 
18

>  <OrigSmiles>  (483) 
C#CCN(CCNCc1ccccc1)C1CCC1

>  <SuCOS_Score>  (483) 
0.24146299498850118

>  <Max_SuCOS_Score>  (483) 
0.41529539681139954

>  <Cum_SuCOS_Score>  (483) 
4.9441424436611943

>  <TransFSScore_50nM>  (483) 
0.0059969999999999997

>  <TransFSScore_1uM>  (483) 
0.19098200000000001

>  <TransFSScore_10nM>  (483) 
0.0062240000000000004

>  <TransFSScore_200nM>  (483) 
0.13827200000000001

>  <TransFSScore>  (483) 
0.085368750000000007

>  <FeatureSteinScore>  (483) 
0.1638391450516227

$$$$
C#CCN(CCOCc1ccccc1)C1CCC1
     RDKit          3D

 18 19  0  0  0  0  0  0  0  0999 V2000
    6.3799   -5.9837   20.4499 C   0  0  0  0  0  0  0  0  0  0  0  0
    6.8880   -5.9625   21.5428 C   0  0  0  0  0  0  0  0  0  0  0  0
    7.5106   -5.9415   22.8794 C   0  0  0  0  0  0  0  0  0  0  0  0
    8.2742   -4.6959   23.1521 N   0  0  0  0  0  0  0  0  0  0  0  0
    7.5109   -3.4679   22.7650 C   0  0  0  0  0  0  0  0  0  0  0  0
    8.3068   -2.5375   21.8287 C   0  0  0  0  0  0  0  0  0  0  0  0
    9.5411   -2.1497   22.4028 O   0  0  0  0  0  0  0  0  0  0  0  0
   10.2433   -1.2575   21.5580 C   0  0  0  0  0  0  0  0  0  0  0  0
   11.5538   -0.8656   22.1844 C   0  0  0  0  0  0  0  0  0  0  0  0
   12.7573   -1.4144   21.7164 C   0  0  0  0  0  0  0  0  0  0  0  0
   13.9705   -1.0503   22.3040 C   0  0  0  0  0  0  0  0  0  0  0  0
   13.9904   -0.1329   23.3571 C   0  0  0  0  0  0  0  0  0  0  0  0
   12.7966    0.4239   23.8227 C   0  0  0  0  0  0  0  0  0  0  0  0
   11.5806    0.0605   23.2385 C   0  0  0  0  0  0  0  0  0  0  0  0
    8.8190   -4.7079   24.5448 C   0  0  0  0  0  0  0  0  0  0  0  0
    9.7009   -5.9175   24.8661 C   0  0  0  0  0  0  0  0  0  0  0  0
   10.8683   -4.9820   25.1642 C   0  0  0  0  0  0  0  0  0  0  0  0
    9.9993   -3.7721   24.8371 C   0  0  0  0  0  0  0  0  0  0  0  0
  1  2  3  0
  2  3  1  0
  3  4  1  0
  4  5  1  0
  4 15  1  0
  5  6  1  0
  6  7  1  0
  7  8  1  0
  8  9  1  0
  9 10  2  0
 10 11  1  0
 11 12  2  0
 12 13  1  0
 13 14  2  0
 14  9  1  0
 15 16  1  0
 16 17  1  0
 17 18  1  0
 18 15  1  0
M  END
>  <Hit>  (484) 
Mpro-x0072_0

>  <Receptor>  (484) 
Mpro-x0387_0

>  <SCORE>  (484) 
-11.8165

>  <SCORE.norm>  (484) 
-0.656474

>  <SCORE.heavy>  (484) 
18

>  <OrigSmiles>  (484) 
C#CCN(CCOCc1ccccc1)C1CCC1

>  <SuCOS_Score>  (484) 
0.42103064975481869

>  <Max_SuCOS_Score>  (484) 
0.42103064975481869

>  <Cum_SuCOS_Score>  (484) 
4.8725374105799686

>  <TransFSScore_50nM>  (484) 
0.043901000000000003

>  <TransFSScore_1uM>  (484) 
0.59782299999999999

>  <TransFSScore_10nM>  (484) 
0.16111700000000001

>  <TransFSScore_200nM>  (484) 
0.24363699999999999

>  <TransFSScore>  (484) 
0.2616195

>  <FeatureSteinScore>  (484) 
0.35527736677225119

$$$$
C#CCN(C[C@@H]1C[C@@H]2CC[C@H]1N2)C(C)C
     RDKit          3D

 15 16  0  0  0  0  0  0  0  0999 V2000
    7.2968   -4.8968   22.7413 C   0  0  0  0  0  0  0  0  0  0  0  0
    8.2444   -4.8157   23.4824 C   0  0  0  0  0  0  0  0  0  0  0  0
    9.4080   -4.7418   24.3847 C   0  0  0  0  0  0  0  0  0  0  0  0
    9.2486   -3.7329   25.4639 N   0  0  0  0  0  0  0  0  0  0  0  0
    9.2224   -2.3691   24.8569 C   0  0  0  0  0  0  0  0  0  0  0  0
   10.3767   -2.1146   23.8450 C   0  0  2  0  0  0  0  0  0  0  0  0
   10.7691   -0.6250   23.7502 C   0  0  0  0  0  0  0  0  0  0  0  0
   10.6987   -0.3855   22.2294 C   0  0  2  0  0  0  0  0  0  0  0  0
    9.2145   -0.2999   21.8236 C   0  0  0  0  0  0  0  0  0  0  0  0
    8.8013   -1.7766   21.8701 C   0  0  0  0  0  0  0  0  0  0  0  0
   10.1080   -2.4422   22.3488 C   0  0  1  0  0  0  0  0  0  0  0  0
   11.1264   -1.6574   21.6675 N   0  0  0  0  0  0  0  0  0  0  0  0
    8.0570   -3.9443   26.3615 C   0  0  0  0  0  0  0  0  0  0  0  0
    7.9934   -5.3358   27.0239 C   0  0  0  0  0  0  0  0  0  0  0  0
    7.9145   -2.8386   27.4240 C   0  0  0  0  0  0  0  0  0  0  0  0
  1  2  3  0
  2  3  1  0
  3  4  1  0
  4  5  1  0
  4 13  1  0
  6  5  1  1
  6  7  1  0
  8  7  1  1
  8  9  1  0
  9 10  1  0
 11 10  1  6
 11 12  1  0
 11  6  1  0
 12  8  1  0
 13 14  1  0
 13 15  1  0
M  END
>  <Hit>  (485) 
Mpro-x0991_0

>  <Receptor>  (485) 
Mpro-x0305_0

>  <SCORE>  (485) 
-4.2767200000000001

>  <SCORE.norm>  (485) 
-0.28511500000000001

>  <SCORE.heavy>  (485) 
15

>  <OrigSmiles>  (485) 
C#CCN(C[C@@H]1C[C@@H]2CC[C@H]1N2)C(C)C

>  <SuCOS_Score>  (485) 
0.52475424479862876

>  <Max_SuCOS_Score>  (485) 
0.52475424479862876

>  <Cum_SuCOS_Score>  (485) 
4.0048701061640379

>  <TransFSScore_50nM>  (485) 
0.014867999999999999

>  <TransFSScore_1uM>  (485) 
0.077301999999999996

>  <TransFSScore_10nM>  (485) 
0.025326999999999999

>  <TransFSScore_200nM>  (485) 
0.20245099999999999

>  <TransFSScore>  (485) 
0.079987000000000003

>  <FeatureSteinScore>  (485) 
0.35674966796853835

$$$$
C#CCN(C[C@H](N)[C@H](C)OCc1ccccc1)C1CCC1
     RDKit          3D

 21 22  0  0  0  0  0  0  0  0999 V2000
    6.3103   -6.2091   27.9600 C   0  0  0  0  0  0  0  0  0  0  0  0
    7.0497   -5.4207   28.4937 C   0  0  0  0  0  0  0  0  0  0  0  0
    7.9435   -4.4576   29.1445 C   0  0  0  0  0  0  0  0  0  0  0  0
    8.7665   -3.7497   28.1295 N   0  0  0  0  0  0  0  0  0  0  0  0
    9.8350   -4.6381   27.5923 C   0  0  0  0  0  0  0  0  0  0  0  0
    9.3672   -5.3320   26.2865 C   0  0  2  0  0  0  0  0  0  0  0  0
   10.4128   -6.2365   25.7803 N   0  0  0  0  0  0  0  0  0  0  0  0
    8.9781   -4.3007   25.1868 C   0  0  2  0  0  0  0  0  0  0  0  0
    8.3532   -4.9692   23.9537 C   0  0  0  0  0  0  0  0  0  0  0  0
   10.1515   -3.6225   24.7639 O   0  0  0  0  0  0  0  0  0  0  0  0
    9.8392   -2.3570   24.2215 C   0  0  0  0  0  0  0  0  0  0  0  0
   11.1081   -1.7037   23.7592 C   0  0  0  0  0  0  0  0  0  0  0  0
   11.8272   -2.2464   22.6834 C   0  0  0  0  0  0  0  0  0  0  0  0
   13.0044   -1.6355   22.2459 C   0  0  0  0  0  0  0  0  0  0  0  0
   13.4623   -0.4723   22.8690 C   0  0  0  0  0  0  0  0  0  0  0  0
   12.7406    0.0848   23.9276 C   0  0  0  0  0  0  0  0  0  0  0  0
   11.5635   -0.5246   24.3697 C   0  0  0  0  0  0  0  0  0  0  0  0
    9.3489   -2.5046   28.6934 C   0  0  0  0  0  0  0  0  0  0  0  0
    9.8453   -1.5284   27.6204 C   0  0  0  0  0  0  0  0  0  0  0  0
    8.8415   -0.4889   28.0885 C   0  0  0  0  0  0  0  0  0  0  0  0
    8.3064   -1.4664   29.1221 C   0  0  0  0  0  0  0  0  0  0  0  0
  1  2  3  0
  2  3  1  0
  3  4  1  0
  4  5  1  0
  4 18  1  0
  5  6  1  0
  6  7  1  6
  6  8  1  0
  8  9  1  6
  8 10  1  0
 10 11  1  0
 11 12  1  0
 12 13  2  0
 13 14  1  0
 14 15  2  0
 15 16  1  0
 16 17  2  0
 17 12  1  0
 18 19  1  0
 19 20  1  0
 20 21  1  0
 21 18  1  0
M  END
>  <Hit>  (486) 
Mpro-x0072_0

>  <Receptor>  (486) 
Mpro-x0387_0

>  <SCORE>  (486) 
-10.827299999999999

>  <SCORE.norm>  (486) 
-0.51558700000000002

>  <SCORE.heavy>  (486) 
21

>  <OrigSmiles>  (486) 
C#CCN(C[C@H](N)[C@H](C)OCc1ccccc1)C1CCC1

>  <SuCOS_Score>  (486) 
0.49407367855285816

>  <Max_SuCOS_Score>  (486) 
0.63643653460975846

>  <Cum_SuCOS_Score>  (486) 
4.9443500091334887

>  <TransFSScore_50nM>  (486) 
0.37785999999999997

>  <TransFSScore_1uM>  (486) 
0.42273100000000002

>  <TransFSScore_10nM>  (486) 
0.312218

>  <TransFSScore_200nM>  (486) 
0.63270199999999999

>  <TransFSScore>  (486) 
0.43637775000000001

>  <FeatureSteinScore>  (486) 
0.34625327266974049

$$$$
C#CCN(Cc1ccccc1)C1CCC1
     RDKit          3D

 15 16  0  0  0  0  0  0  0  0999 V2000
    8.2076    2.1919   23.0589 C   0  0  0  0  0  0  0  0  0  0  0  0
    8.7464    1.6869   22.1058 C   0  0  0  0  0  0  0  0  0  0  0  0
    9.4048    1.0635   20.9395 C   0  0  0  0  0  0  0  0  0  0  0  0
    9.2918   -0.4277   20.8852 N   0  0  0  0  0  0  0  0  0  0  0  0
    9.9211   -1.0820   22.0639 C   0  0  0  0  0  0  0  0  0  0  0  0
   11.3653   -0.6748   22.2502 C   0  0  0  0  0  0  0  0  0  0  0  0
   12.3801   -1.2983   21.5073 C   0  0  0  0  0  0  0  0  0  0  0  0
   13.7132   -0.9255   21.6875 C   0  0  0  0  0  0  0  0  0  0  0  0
   14.0425    0.0718   22.6081 C   0  0  0  0  0  0  0  0  0  0  0  0
   13.0382    0.6990   23.3494 C   0  0  0  0  0  0  0  0  0  0  0  0
   11.7032    0.3275   23.1734 C   0  0  0  0  0  0  0  0  0  0  0  0
    7.9264   -0.9827   20.6238 C   0  0  0  0  0  0  0  0  0  0  0  0
    7.2199   -0.3882   19.4020 C   0  0  0  0  0  0  0  0  0  0  0  0
    6.0982    0.1158   20.3034 C   0  0  0  0  0  0  0  0  0  0  0  0
    6.7835   -0.4967   21.5206 C   0  0  0  0  0  0  0  0  0  0  0  0
  1  2  3  0
  2  3  1  0
  3  4  1  0
  4  5  1  0
  4 12  1  0
  5  6  1  0
  6  7  2  0
  7  8  1  0
  8  9  2  0
  9 10  1  0
 10 11  2  0
 11  6  1  0
 12 13  1  0
 13 14  1  0
 14 15  1  0
 15 12  1  0
M  END
>  <Hit>  (487) 
Mpro-x0072_0

>  <Receptor>  (487) 
Mpro-x1249_0

>  <SCORE>  (487) 
-10.6516

>  <SCORE.norm>  (487) 
-0.71010499999999999

>  <SCORE.heavy>  (487) 
15

>  <OrigSmiles>  (487) 
C#CCN(Cc1ccccc1)C1CCC1

>  <SuCOS_Score>  (487) 
0.28718326217688661

>  <Max_SuCOS_Score>  (487) 
0.51161854194751011

>  <Cum_SuCOS_Score>  (487) 
4.9639520151684344

>  <TransFSScore_50nM>  (487) 
0.035279999999999999

>  <TransFSScore_1uM>  (487) 
0.35154800000000003

>  <TransFSScore_10nM>  (487) 
0.114463

>  <TransFSScore_200nM>  (487) 
0.36892000000000003

>  <TransFSScore>  (487) 
0.21755275000000002

>  <FeatureSteinScore>  (487) 
0.26465414781124269

$$$$
C#CCN(Cc1ccco1)S(=O)(=O)c1cccc(C(=O)OC)c1
     RDKit          3D

 23 24  0  0  0  0  0  0  0  0999 V2000
    3.9381    1.4597   24.5823 C   0  0  0  0  0  0  0  0  0  0  0  0
    5.0529    1.1497   24.2444 C   0  0  0  0  0  0  0  0  0  0  0  0
    6.4143    0.7699   23.8333 C   0  0  0  0  0  0  0  0  0  0  0  0
    6.4783    0.4226   22.3965 N   0  0  0  0  0  0  0  0  0  0  0  0
    7.1572   -0.8679   22.1198 C   0  0  0  0  0  0  0  0  0  0  0  0
    6.4228   -1.7452   21.1421 C   0  0  0  0  0  0  0  0  0  0  0  0
    6.1920   -3.0993   21.2837 C   0  0  0  0  0  0  0  0  0  0  0  0
    5.4955   -3.4763   20.1561 C   0  0  0  0  0  0  0  0  0  0  0  0
    5.3420   -2.3319   19.3999 C   0  0  0  0  0  0  0  0  0  0  0  0
    5.9044   -1.3167   20.0143 O   0  0  0  0  0  0  0  0  0  0  0  0
    7.2101    1.7366   21.5010 S   0  0  0  0  0  0  0  0  0  0  0  0
    6.3523    2.9691   21.5856 O   0  0  0  0  0  0  0  0  0  0  0  0
    7.3663    1.3594   20.0530 O   0  0  0  0  0  0  0  0  0  0  0  0
    8.7902    2.1040   22.1891 C   0  0  0  0  0  0  0  0  0  0  0  0
    9.1159    3.4121   22.5702 C   0  0  0  0  0  0  0  0  0  0  0  0
   10.3769    3.6974   23.0991 C   0  0  0  0  0  0  0  0  0  0  0  0
   11.3184    2.6769   23.2534 C   0  0  0  0  0  0  0  0  0  0  0  0
   11.0051    1.3653   22.8655 C   0  0  0  0  0  0  0  0  0  0  0  0
   11.9979    0.2832   23.0177 C   0  0  0  0  0  0  0  0  0  0  0  0
   13.0634    0.4988   23.6449 O   0  0  0  0  0  0  0  0  0  0  0  0
   11.8022   -0.9684   22.4402 O   0  0  0  0  0  0  0  0  0  0  0  0
   12.8860   -1.8724   22.2911 C   0  0  0  0  0  0  0  0  0  0  0  0
    9.7408    1.0865   22.3269 C   0  0  0  0  0  0  0  0  0  0  0  0
  1  2  3  0
  2  3  1  0
  3  4  1  0
  4  5  1  0
  4 11  1  0
  5  6  1  0
  6  7  2  0
  7  8  1  0
  8  9  2  0
  9 10  1  0
 10  6  1  0
 11 12  2  0
 11 13  2  0
 11 14  1  0
 14 15  2  0
 15 16  1  0
 16 17  2  0
 17 18  1  0
 18 19  1  0
 18 23  2  0
 19 20  2  0
 19 21  1  0
 21 22  1  0
 23 14  1  0
M  END
>  <Hit>  (488) 
Mpro-x0161_0

>  <Receptor>  (488) 
Mpro-x0387_0

>  <SCORE>  (488) 
-18.708500000000001

>  <SCORE.norm>  (488) 
-0.81341300000000005

>  <SCORE.heavy>  (488) 
23

>  <OrigSmiles>  (488) 
C#CCN(Cc1ccco1)S(=O)(=O)c1cccc(C(=O)OC)c1

>  <SuCOS_Score>  (488) 
0.26583095316625222

>  <Max_SuCOS_Score>  (488) 
0.34563856267545584

>  <Cum_SuCOS_Score>  (488) 
4.3263635404851453

>  <TransFSScore_50nM>  (488) 
0.004065

>  <TransFSScore_1uM>  (488) 
0.026699000000000001

>  <TransFSScore_10nM>  (488) 
0.020865999999999999

>  <TransFSScore_200nM>  (488) 
0.052729999999999999

>  <TransFSScore>  (488) 
0.026089999999999999

>  <FeatureSteinScore>  (488) 
0.12075222958161276

$$$$
C#CCN(c1ccc(C#N)cn1)C1CC1
     RDKit          3D

 15 16  0  0  0  0  0  0  0  0999 V2000
    9.5846   -2.5520   28.6993 C   0  0  0  0  0  0  0  0  0  0  0  0
    9.8941   -1.6400   27.9731 C   0  0  0  0  0  0  0  0  0  0  0  0
   10.2876   -0.5361   27.0682 C   0  0  0  0  0  0  0  0  0  0  0  0
    9.7696   -0.6673   25.6760 N   0  0  0  0  0  0  0  0  0  0  0  0
   10.8228   -0.9519   24.6900 C   0  0  0  0  0  0  0  0  0  0  0  0
   10.8597   -2.1809   23.9833 C   0  0  0  0  0  0  0  0  0  0  0  0
   11.7516   -2.3520   22.9152 C   0  0  0  0  0  0  0  0  0  0  0  0
   12.5801   -1.2964   22.5248 C   0  0  0  0  0  0  0  0  0  0  0  0
   13.5023   -1.4151   21.4150 C   0  0  0  0  0  0  0  0  0  0  0  0
   14.2465   -1.4895   20.5303 N   0  0  0  0  0  0  0  0  0  0  0  0
   12.5140   -0.0992   23.2261 C   0  0  0  0  0  0  0  0  0  0  0  0
   11.6668    0.0454   24.2721 N   0  0  0  0  0  0  0  0  0  0  0  0
    8.9147    0.4886   25.2690 C   0  0  0  0  0  0  0  0  0  0  0  0
    7.5334    0.5443   25.9339 C   0  0  0  0  0  0  0  0  0  0  0  0
    7.6451    0.1267   24.4868 C   0  0  0  0  0  0  0  0  0  0  0  0
  1  2  3  0
  2  3  1  0
  3  4  1  0
  4  5  1  0
  4 13  1  0
  5  6  2  0
  6  7  1  0
  7  8  2  0
  8  9  1  0
  8 11  1  0
  9 10  3  0
 11 12  2  0
 12  5  1  0
 13 14  1  0
 14 15  1  0
 15 13  1  0
M  END
>  <Hit>  (489) 
Mpro-x0305_0

>  <Receptor>  (489) 
Mpro-x0387_0

>  <SCORE>  (489) 
-10.835100000000001

>  <SCORE.norm>  (489) 
-0.72234200000000004

>  <SCORE.heavy>  (489) 
15

>  <OrigSmiles>  (489) 
C#CCN(c1ccc(C#N)cn1)C1CC1

>  <SuCOS_Score>  (489) 
0.73129920394561898

>  <Max_SuCOS_Score>  (489) 
0.73129920394561898

>  <Cum_SuCOS_Score>  (489) 
4.2904718077634962

>  <TransFSScore_50nM>  (489) 
0.062877000000000002

>  <TransFSScore_1uM>  (489) 
0.20700199999999999

>  <TransFSScore_10nM>  (489) 
0.028993999999999999

>  <TransFSScore_200nM>  (489) 
0.29265200000000002

>  <TransFSScore>  (489) 
0.14788125000000002

>  <FeatureSteinScore>  (489) 
0.34949295281087173

$$$$
C#CCN(c1ccncc1C#N)C1CC1
     RDKit          3D

 15 16  0  0  0  0  0  0  0  0999 V2000
    9.3471    0.9812   20.9817 C   0  0  0  0  0  0  0  0  0  0  0  0
    9.4903   -0.1857   21.2479 C   0  0  0  0  0  0  0  0  0  0  0  0
    9.6688   -1.6128   21.5732 C   0  0  0  0  0  0  0  0  0  0  0  0
   10.5440   -1.8052   22.7594 N   0  0  0  0  0  0  0  0  0  0  0  0
   11.3107   -0.5951   23.0522 C   0  0  0  0  0  0  0  0  0  0  0  0
   10.7894    0.3400   23.9665 C   0  0  0  0  0  0  0  0  0  0  0  0
   11.5057    1.4915   24.2831 C   0  0  0  0  0  0  0  0  0  0  0  0
   12.7128    1.7232   23.7118 N   0  0  0  0  0  0  0  0  0  0  0  0
   13.2568    0.8487   22.8254 C   0  0  0  0  0  0  0  0  0  0  0  0
   12.5807   -0.3285   22.4732 C   0  0  0  0  0  0  0  0  0  0  0  0
   13.2047   -1.2326   21.5254 C   0  0  0  0  0  0  0  0  0  0  0  0
   13.6998   -1.9571   20.7692 N   0  0  0  0  0  0  0  0  0  0  0  0
    9.8759   -2.2756   24.0081 C   0  0  0  0  0  0  0  0  0  0  0  0
    8.8554   -3.4177   23.9621 C   0  0  0  0  0  0  0  0  0  0  0  0
   10.2777   -3.6902   24.4216 C   0  0  0  0  0  0  0  0  0  0  0  0
  1  2  3  0
  2  3  1  0
  3  4  1  0
  4  5  1  0
  4 13  1  0
  5  6  2  0
  6  7  1  0
  7  8  2  0
  8  9  1  0
  9 10  2  0
 10 11  1  0
 10  5  1  0
 11 12  3  0
 13 14  1  0
 14 15  1  0
 15 13  1  0
M  END
>  <Hit>  (490) 
Mpro-x0305_0

>  <Receptor>  (490) 
Mpro-x0874_0

>  <SCORE>  (490) 
-10.8874

>  <SCORE.norm>  (490) 
-0.72582500000000005

>  <SCORE.heavy>  (490) 
15

>  <OrigSmiles>  (490) 
C#CCN(c1ccncc1C#N)C1CC1

>  <SuCOS_Score>  (490) 
0.4012000772999319

>  <Max_SuCOS_Score>  (490) 
0.4012000772999319

>  <Cum_SuCOS_Score>  (490) 
5.0983967191414692

>  <TransFSScore_50nM>  (490) 
0.010682000000000001

>  <TransFSScore_1uM>  (490) 
0.308342

>  <TransFSScore_10nM>  (490) 
0.031417

>  <TransFSScore_200nM>  (490) 
0.26974399999999998

>  <TransFSScore>  (490) 
0.15504625

>  <FeatureSteinScore>  (490) 
0.30359684732019443

$$$$
C#CCN(c1ncccc1C#N)C1CC1
     RDKit          3D

 15 16  0  0  0  0  0  0  0  0999 V2000
    7.0085    1.6843   24.3582 C   0  0  0  0  0  0  0  0  0  0  0  0
    7.7290    0.7306   24.1953 C   0  0  0  0  0  0  0  0  0  0  0  0
    8.6357   -0.4208   24.0275 C   0  0  0  0  0  0  0  0  0  0  0  0
    9.9535   -0.1665   24.6523 N   0  0  0  0  0  0  0  0  0  0  0  0
   11.1357   -0.3170   23.7989 C   0  0  0  0  0  0  0  0  0  0  0  0
   12.2269    0.4334   24.1450 N   0  0  0  0  0  0  0  0  0  0  0  0
   13.4732    0.1898   23.6805 C   0  0  0  0  0  0  0  0  0  0  0  0
   13.6826   -0.7946   22.7308 C   0  0  0  0  0  0  0  0  0  0  0  0
   12.5994   -1.5214   22.2585 C   0  0  0  0  0  0  0  0  0  0  0  0
   11.3158   -1.3058   22.7740 C   0  0  0  0  0  0  0  0  0  0  0  0
   10.2610   -2.0586   22.1393 C   0  0  0  0  0  0  0  0  0  0  0  0
    9.4246   -2.6664   21.6181 N   0  0  0  0  0  0  0  0  0  0  0  0
   10.1412   -1.1595   25.7599 C   0  0  0  0  0  0  0  0  0  0  0  0
    9.1816   -1.0584   26.9508 C   0  0  0  0  0  0  0  0  0  0  0  0
   10.6116   -0.6075   27.1133 C   0  0  0  0  0  0  0  0  0  0  0  0
  1  2  3  0
  2  3  1  0
  3  4  1  0
  4  5  1  0
  4 13  1  0
  5  6  2  0
  6  7  1  0
  7  8  2  0
  8  9  1  0
  9 10  2  0
 10 11  1  0
 10  5  1  0
 11 12  3  0
 13 14  1  0
 14 15  1  0
 15 13  1  0
M  END
>  <Hit>  (491) 
Mpro-x0305_0

>  <Receptor>  (491) 
Mpro-x0387_0

>  <SCORE>  (491) 
-10.799200000000001

>  <SCORE.norm>  (491) 
-0.71994800000000003

>  <SCORE.heavy>  (491) 
15

>  <OrigSmiles>  (491) 
C#CCN(c1ncccc1C#N)C1CC1

>  <SuCOS_Score>  (491) 
0.56868263454228496

>  <Max_SuCOS_Score>  (491) 
0.56868263454228496

>  <Cum_SuCOS_Score>  (491) 
5.0864023483540386

>  <TransFSScore_50nM>  (491) 
0.000486

>  <TransFSScore_1uM>  (491) 
0.115108

>  <TransFSScore_10nM>  (491) 
0.001464

>  <TransFSScore_200nM>  (491) 
0.029729999999999999

>  <TransFSScore>  (491) 
0.036697

>  <FeatureSteinScore>  (491) 
0.70568067782872435

$$$$
C#CCN1C2CCC1CC2
     RDKit          3D

 10 11  0  0  0  0  0  0  0  0999 V2000
    8.6816   -5.7161   23.8836 C   0  0  0  0  0  0  0  0  0  0  0  0
    8.3871   -4.5851   23.5888 C   0  0  0  0  0  0  0  0  0  0  0  0
    8.0249   -3.2025   23.2295 C   0  0  0  0  0  0  0  0  0  0  0  0
    9.1538   -2.5264   22.5441 N   0  0  0  0  0  0  0  0  0  0  0  0
    9.0954   -1.0640   22.4732 C   0  0  2  0  0  0  0  0  0  0  0  0
   10.4091   -0.7198   21.7365 C   0  0  0  0  0  0  0  0  0  0  0  0
   11.3651   -1.7867   22.3069 C   0  0  0  0  0  0  0  0  0  0  0  0
   10.4268   -2.5548   23.2649 C   0  0  1  0  0  0  0  0  0  0  0  0
   10.2067   -1.6516   24.5003 C   0  0  0  0  0  0  0  0  0  0  0  0
    9.2611   -0.5838   23.9334 C   0  0  0  0  0  0  0  0  0  0  0  0
  1  2  3  0
  2  3  1  0
  3  4  1  0
  4  5  1  0
  5  6  1  6
  6  7  1  0
  8  7  1  6
  8  9  1  0
  8  4  1  0
  9 10  1  0
 10  5  1  0
M  END
>  <Hit>  (492) 
Mpro-x0991_0

>  <Receptor>  (492) 
Mpro-x1249_0

>  <SCORE>  (492) 
-0.69342199999999998

>  <SCORE.norm>  (492) 
-0.069342200000000007

>  <SCORE.heavy>  (492) 
10

>  <OrigSmiles>  (492) 
C#CCN1C2CCC1CC2

>  <SuCOS_Score>  (492) 
0.38227291929060042

>  <Max_SuCOS_Score>  (492) 
0.38227291929060042

>  <Cum_SuCOS_Score>  (492) 
3.023430486090545

>  <TransFSScore_50nM>  (492) 
0.0060260000000000001

>  <TransFSScore_1uM>  (492) 
0.086110000000000006

>  <TransFSScore_10nM>  (492) 
0.011806000000000001

>  <TransFSScore_200nM>  (492) 
0.10576199999999999

>  <TransFSScore>  (492) 
0.052426

>  <FeatureSteinScore>  (492) 
0.75113235088374719

$$$$
C#CCN1C2CCC1CNC2
     RDKit          3D

 11 12  0  0  0  0  0  0  0  0999 V2000
    9.0992   -2.1346   22.3979 C   0  0  0  0  0  0  0  0  0  0  0  0
    8.8562   -3.1967   22.9133 C   0  0  0  0  0  0  0  0  0  0  0  0
    8.5609   -4.4966   23.5446 C   0  0  0  0  0  0  0  0  0  0  0  0
    7.5772   -4.3459   24.6455 N   0  0  0  0  0  0  0  0  0  0  0  0
    8.0616   -3.5109   25.7566 C   0  0  2  0  0  0  0  0  0  0  0  0
    9.0236   -4.4022   26.5624 C   0  0  0  0  0  0  0  0  0  0  0  0
    8.5309   -5.8220   26.2782 C   0  0  0  0  0  0  0  0  0  0  0  0
    7.3249   -5.6136   25.3456 C   0  0  1  0  0  0  0  0  0  0  0  0
    6.0280   -5.4436   26.1851 C   0  0  0  0  0  0  0  0  0  0  0  0
    6.1364   -4.3288   27.1577 N   0  0  0  0  0  0  0  0  0  0  0  0
    6.8354   -3.1310   26.6314 C   0  0  0  0  0  0  0  0  0  0  0  0
  1  2  3  0
  2  3  1  0
  3  4  1  0
  4  5  1  0
  5  6  1  1
  6  7  1  0
  8  7  1  1
  8  9  1  0
  8  4  1  0
  9 10  1  0
 10 11  1  0
 11  5  1  0
M  END
>  <Hit>  (493) 
Mpro-x0991_0

>  <Receptor>  (493) 
Mpro-x1249_0

>  <SCORE>  (493) 
-0.058322100000000002

>  <SCORE.norm>  (493) 
-0.0053020100000000002

>  <SCORE.heavy>  (493) 
11

>  <OrigSmiles>  (493) 
C#CCN1C2CCC1CNC2

>  <SuCOS_Score>  (493) 
0.41685742851011737

>  <Max_SuCOS_Score>  (493) 
0.41685742851011737

>  <Cum_SuCOS_Score>  (493) 
1.8647462942289703

>  <TransFSScore_50nM>  (493) 
0.033017999999999999

>  <TransFSScore_1uM>  (493) 
0.076793

>  <TransFSScore_10nM>  (493) 
0.016060999999999999

>  <TransFSScore_200nM>  (493) 
0.022471999999999999

>  <TransFSScore>  (493) 
0.037085999999999994

>  <FeatureSteinScore>  (493) 
0.27167762309737675

$$$$
C#CCN1[C@H]2CC[C@@H]1CNC2
     RDKit          3D

 11 12  0  0  0  0  0  0  0  0999 V2000
   10.4225   -2.0232   23.1370 C   0  0  0  0  0  0  0  0  0  0  0  0
    9.5287   -2.7308   23.5285 C   0  0  0  0  0  0  0  0  0  0  0  0
    8.4363   -3.5983   24.0061 C   0  0  0  0  0  0  0  0  0  0  0  0
    8.9384   -4.5964   24.9819 N   0  0  0  0  0  0  0  0  0  0  0  0
    7.9244   -5.4907   25.5538 C   0  0  1  0  0  0  0  0  0  0  0  0
    8.7042   -6.3004   26.6055 C   0  0  0  0  0  0  0  0  0  0  0  0
    9.8265   -5.3473   27.0419 C   0  0  0  0  0  0  0  0  0  0  0  0
    9.5810   -4.0822   26.1999 C   0  0  2  0  0  0  0  0  0  0  0  0
    8.6233   -3.1283   26.9700 C   0  0  0  0  0  0  0  0  0  0  0  0
    7.3284   -3.7639   27.3017 N   0  0  0  0  0  0  0  0  0  0  0  0
    6.8034   -4.6725   26.2579 C   0  0  0  0  0  0  0  0  0  0  0  0
  1  2  3  0
  2  3  1  0
  3  4  1  0
  4  5  1  0
  5  6  1  1
  6  7  1  0
  8  7  1  1
  8  9  1  0
  8  4  1  0
  9 10  1  0
 10 11  1  0
 11  5  1  0
M  END
>  <Hit>  (494) 
Mpro-x0991_0

>  <Receptor>  (494) 
Mpro-x0305_0

>  <SCORE>  (494) 
-0.49946099999999999

>  <SCORE.norm>  (494) 
-0.045405500000000001

>  <SCORE.heavy>  (494) 
11

>  <OrigSmiles>  (494) 
C#CCN1[C@H]2CC[C@@H]1CNC2

>  <SuCOS_Score>  (494) 
0.42301363054109031

>  <Max_SuCOS_Score>  (494) 
0.42301363054109031

>  <Cum_SuCOS_Score>  (494) 
2.426206888849447

>  <TransFSScore_50nM>  (494) 
0.035830000000000001

>  <TransFSScore_1uM>  (494) 
0.111665

>  <TransFSScore_10nM>  (494) 
0.011285999999999999

>  <TransFSScore_200nM>  (494) 
0.041152000000000001

>  <TransFSScore>  (494) 
0.049983249999999993

>  <FeatureSteinScore>  (494) 
0.20277746411735714

$$$$
C#CCNC(=O)C(C)Nc1ccc(Cl)cc1Br
     RDKit          3D

 17 17  0  0  0  0  0  0  0  0999 V2000
    5.8205   -5.7124   19.8127 C   0  0  0  0  0  0  0  0  0  0  0  0
    6.3653   -5.9445   20.8628 C   0  0  0  0  0  0  0  0  0  0  0  0
    7.0298   -6.2275   22.1393 C   0  0  0  0  0  0  0  0  0  0  0  0
    8.0337   -5.2056   22.4221 N   0  0  0  0  0  0  0  0  0  0  0  0
    7.8725   -4.2385   23.4710 C   0  0  0  0  0  0  0  0  0  0  0  0
    6.8255   -4.2384   24.1754 O   0  0  0  0  0  0  0  0  0  0  0  0
    8.9327   -3.1898   23.7086 C   0  0  1  0  0  0  0  0  0  0  0  0
   10.1137   -3.8297   24.4537 C   0  0  0  0  0  0  0  0  0  0  0  0
    9.3518   -2.5818   22.4256 N   0  0  0  0  0  0  0  0  0  0  0  0
    9.6073   -1.1626   22.5613 C   0  0  0  0  0  0  0  0  0  0  0  0
    8.5176   -0.2732   22.6395 C   0  0  0  0  0  0  0  0  0  0  0  0
    8.7221    1.1008   22.7803 C   0  0  0  0  0  0  0  0  0  0  0  0
   10.0211    1.6071   22.8512 C   0  0  0  0  0  0  0  0  0  0  0  0
   10.2800    3.3325   23.0333 Cl  0  0  0  0  0  0  0  0  0  0  0  0
   11.1159    0.7407   22.7746 C   0  0  0  0  0  0  0  0  0  0  0  0
   10.9223   -0.6390   22.6238 C   0  0  0  0  0  0  0  0  0  0  0  0
   12.4858   -1.7554   22.4838 Br  0  0  0  0  0  0  0  0  0  0  0  0
  1  2  3  0
  2  3  1  0
  3  4  1  0
  4  5  1  0
  5  6  2  0
  5  7  1  0
  7  8  1  6
  7  9  1  0
  9 10  1  0
 10 11  2  0
 11 12  1  0
 12 13  2  0
 13 14  1  0
 13 15  1  0
 15 16  2  0
 16 17  1  0
 16 10  1  0
M  END
>  <Hit>  (495) 
Mpro-x0946_0

>  <Receptor>  (495) 
Mpro-x0387_0

>  <SCORE>  (495) 
-12.054600000000001

>  <SCORE.norm>  (495) 
-0.70909199999999994

>  <SCORE.heavy>  (495) 
17

>  <OrigSmiles>  (495) 
C#CCNC(=O)C(C)Nc1ccc(Cl)cc1Br

>  <SuCOS_Score>  (495) 
0.1664232315014309

>  <Max_SuCOS_Score>  (495) 
0.3755465832686482

>  <Cum_SuCOS_Score>  (495) 
4.2460899035457489

>  <TransFSScore_50nM>  (495) 
0.000232

>  <TransFSScore_1uM>  (495) 
0.004241

>  <TransFSScore_10nM>  (495) 
0.00051099999999999995

>  <TransFSScore_200nM>  (495) 
0.0011130000000000001

>  <TransFSScore>  (495) 
0.00152425

>  <FeatureSteinScore>  (495) 
0.37485279325240178

$$$$
C#CCNC(=O)C12CCC(CC1)N2
     RDKit          3D

 13 14  0  0  0  0  0  0  0  0999 V2000
    8.2293   -5.9198   23.1182 C   0  0  0  0  0  0  0  0  0  0  0  0
    8.8583   -5.6448   24.1090 C   0  0  0  0  0  0  0  0  0  0  0  0
    9.6267   -5.3088   25.3191 C   0  0  0  0  0  0  0  0  0  0  0  0
    8.9807   -4.2427   26.0801 N   0  0  0  0  0  0  0  0  0  0  0  0
    8.6389   -2.9922   25.4595 C   0  0  0  0  0  0  0  0  0  0  0  0
    8.8997   -2.8115   24.2385 O   0  0  0  0  0  0  0  0  0  0  0  0
    7.9698   -1.8721   26.2273 C   0  0  2  0  0  0  0  0  0  0  0  0
    8.9089   -1.1928   27.2479 C   0  0  0  0  0  0  0  0  0  0  0  0
    8.1917    0.1462   27.4706 C   0  0  0  0  0  0  0  0  0  0  0  0
    6.9739   -0.0008   26.5381 C   0  0  2  0  0  0  0  0  0  0  0  0
    5.9838   -0.9828   27.1937 C   0  0  0  0  0  0  0  0  0  0  0  0
    6.6940   -2.3254   26.9702 C   0  0  0  0  0  0  0  0  0  0  0  0
    7.5017   -0.7568   25.4128 N   0  0  0  0  0  0  0  0  0  0  0  0
  1  2  3  0
  2  3  1  0
  3  4  1  0
  4  5  1  0
  5  6  2  0
  7  5  1  6
  7  8  1  0
  8  9  1  0
 10  9  1  1
 10 11  1  0
 10 13  1  0
 11 12  1  0
 12  7  1  0
 13  7  1  0
M  END
>  <Hit>  (496) 
Mpro-x0991_0

>  <Receptor>  (496) 
Mpro-x1249_0

>  <SCORE>  (496) 
-0.970858

>  <SCORE.norm>  (496) 
-0.074681399999999995

>  <SCORE.heavy>  (496) 
13

>  <OrigSmiles>  (496) 
C#CCNC(=O)C12CCC(CC1)N2

>  <SuCOS_Score>  (496) 
0.44448578381241588

>  <Max_SuCOS_Score>  (496) 
0.44448578381241588

>  <Cum_SuCOS_Score>  (496) 
1.8086898365473967

>  <TransFSScore_50nM>  (496) 
0.011949

>  <TransFSScore_1uM>  (496) 
0.080066999999999999

>  <TransFSScore_10nM>  (496) 
0.022237

>  <TransFSScore_200nM>  (496) 
0.0078750000000000001

>  <TransFSScore>  (496) 
0.030531999999999997

>  <FeatureSteinScore>  (496) 
0.31490508697627073

$$$$
C#CCNC(=O)C1CC2CCC1N2
     RDKit          3D

 13 14  0  0  0  0  0  0  0  0999 V2000
    8.1809   -5.6063   23.3507 C   0  0  0  0  0  0  0  0  0  0  0  0
    8.9589   -5.4427   24.2569 C   0  0  0  0  0  0  0  0  0  0  0  0
    9.9096   -5.2426   25.3620 C   0  0  0  0  0  0  0  0  0  0  0  0
    9.3794   -4.3004   26.3410 N   0  0  0  0  0  0  0  0  0  0  0  0
    8.7563   -3.0651   25.9620 C   0  0  0  0  0  0  0  0  0  0  0  0
    8.6491   -2.7620   24.7418 O   0  0  0  0  0  0  0  0  0  0  0  0
    8.2714   -2.1198   27.0374 C   0  0  2  0  0  0  0  0  0  0  0  0
    7.1046   -1.1872   26.6440 C   0  0  0  0  0  0  0  0  0  0  0  0
    7.6871    0.1876   27.0107 C   0  0  2  0  0  0  0  0  0  0  0  0
    8.7119    0.5896   25.9348 C   0  0  0  0  0  0  0  0  0  0  0  0
    9.8944   -0.3128   26.2938 C   0  0  0  0  0  0  0  0  0  0  0  0
    9.3271   -1.0934   27.4995 C   0  0  1  0  0  0  0  0  0  0  0  0
    8.4987   -0.1130   28.1788 N   0  0  0  0  0  0  0  0  0  0  0  0
  1  2  3  0
  2  3  1  0
  3  4  1  0
  4  5  1  0
  5  6  2  0
  7  5  1  6
  7  8  1  0
  9  8  1  6
  9 10  1  0
 10 11  1  0
 12 11  1  6
 12 13  1  0
 12  7  1  0
 13  9  1  0
M  END
>  <Hit>  (497) 
Mpro-x0991_0

>  <Receptor>  (497) 
Mpro-x1249_0

>  <SCORE>  (497) 
-3.6413799999999998

>  <SCORE.norm>  (497) 
-0.28010600000000002

>  <SCORE.heavy>  (497) 
13

>  <OrigSmiles>  (497) 
C#CCNC(=O)C1CC2CCC1N2

>  <SuCOS_Score>  (497) 
0.42169043036626841

>  <Max_SuCOS_Score>  (497) 
0.42169043036626841

>  <Cum_SuCOS_Score>  (497) 
1.9590104885527109

>  <TransFSScore_50nM>  (497) 
0.004712

>  <TransFSScore_1uM>  (497) 
0.052551

>  <TransFSScore_10nM>  (497) 
0.0038319999999999999

>  <TransFSScore_200nM>  (497) 
0.018454000000000002

>  <TransFSScore>  (497) 
0.019887250000000002

>  <FeatureSteinScore>  (497) 
0.19036803275154515

$$$$
C#CCNC(=O)CC12CCC(CC1)N2
     RDKit          3D

 14 15  0  0  0  0  0  0  0  0999 V2000
    6.9953   -6.5050   28.5584 C   0  0  0  0  0  0  0  0  0  0  0  0
    7.4360   -5.5717   27.9354 C   0  0  0  0  0  0  0  0  0  0  0  0
    7.9706   -4.4396   27.1785 C   0  0  0  0  0  0  0  0  0  0  0  0
    9.2074   -4.8416   26.5228 N   0  0  0  0  0  0  0  0  0  0  0  0
    9.5511   -4.5743   25.1607 C   0  0  0  0  0  0  0  0  0  0  0  0
   10.6090   -5.0721   24.6931 O   0  0  0  0  0  0  0  0  0  0  0  0
    8.6851   -3.7148   24.2757 C   0  0  0  0  0  0  0  0  0  0  0  0
    7.6015   -4.5322   23.5417 C   0  0  1  0  0  0  0  0  0  0  0  0
    6.4951   -5.0921   24.4582 C   0  0  0  0  0  0  0  0  0  0  0  0
    5.9745   -6.2649   23.6169 C   0  0  0  0  0  0  0  0  0  0  0  0
    6.8793   -6.1754   22.3794 C   0  0  1  0  0  0  0  0  0  0  0  0
    6.4230   -4.9809   21.5222 C   0  0  0  0  0  0  0  0  0  0  0  0
    6.9363   -3.8005   22.3513 C   0  0  0  0  0  0  0  0  0  0  0  0
    8.1446   -5.7431   22.9466 N   0  0  0  0  0  0  0  0  0  0  0  0
  1  2  3  0
  2  3  1  0
  3  4  1  0
  4  5  1  0
  5  6  2  0
  5  7  1  0
  8  7  1  1
  8  9  1  0
  9 10  1  0
 11 10  1  1
 11 12  1  0
 11 14  1  0
 12 13  1  0
 13  8  1  0
 14  8  1  0
M  END
>  <Hit>  (498) 
Mpro-x0991_0

>  <Receptor>  (498) 
Mpro-x1249_0

>  <SCORE>  (498) 
-5.6401899999999996

>  <SCORE.norm>  (498) 
-0.40287099999999998

>  <SCORE.heavy>  (498) 
14

>  <OrigSmiles>  (498) 
C#CCNC(=O)CC12CCC(CC1)N2

>  <SuCOS_Score>  (498) 
0.5512467065494111

>  <Max_SuCOS_Score>  (498) 
0.5512467065494111

>  <Cum_SuCOS_Score>  (498) 
1.6470015121321187

>  <TransFSScore_50nM>  (498) 
0.0018450000000000001

>  <TransFSScore_1uM>  (498) 
0.084530999999999995

>  <TransFSScore_10nM>  (498) 
0.014352999999999999

>  <TransFSScore_200nM>  (498) 
0.022068999999999998

>  <TransFSScore>  (498) 
0.030699499999999998

>  <FeatureSteinScore>  (498) 
0.41521670993437421

$$$$
C#CCNC(=O)CN1C2CCC1CC2
     RDKit          3D

 14 15  0  0  0  0  0  0  0  0999 V2000
    7.4868   -6.4851   28.5927 C   0  0  0  0  0  0  0  0  0  0  0  0
    8.3355   -5.9290   27.9417 C   0  0  0  0  0  0  0  0  0  0  0  0
    9.3677   -5.2557   27.1466 C   0  0  0  0  0  0  0  0  0  0  0  0
    8.7462   -4.4173   26.1258 N   0  0  0  0  0  0  0  0  0  0  0  0
    8.7933   -4.7432   24.7323 C   0  0  0  0  0  0  0  0  0  0  0  0
    9.4357   -5.7517   24.3317 O   0  0  0  0  0  0  0  0  0  0  0  0
    8.0261   -3.9101   23.7470 C   0  0  0  0  0  0  0  0  0  0  0  0
    8.9511   -3.1861   22.8398 N   0  0  0  0  0  0  0  0  0  0  0  0
   10.0364   -2.4630   23.5038 C   0  0  1  0  0  0  0  0  0  0  0  0
   10.7956   -1.8407   22.3107 C   0  0  0  0  0  0  0  0  0  0  0  0
    9.6344   -1.5088   21.3524 C   0  0  0  0  0  0  0  0  0  0  0  0
    8.4172   -1.9987   22.1680 C   0  0  2  0  0  0  0  0  0  0  0  0
    8.1883   -0.9684   23.2972 C   0  0  0  0  0  0  0  0  0  0  0  0
    9.3436   -1.3004   24.2517 C   0  0  0  0  0  0  0  0  0  0  0  0
  1  2  3  0
  2  3  1  0
  3  4  1  0
  4  5  1  0
  5  6  2  0
  5  7  1  0
  7  8  1  0
  8  9  1  0
  9 10  1  6
 10 11  1  0
 12 11  1  6
 12 13  1  0
 12  8  1  0
 13 14  1  0
 14  9  1  0
M  END
>  <Hit>  (499) 
Mpro-x0991_0

>  <Receptor>  (499) 
Mpro-x0305_0

>  <SCORE>  (499) 
-5.2396799999999999

>  <SCORE.norm>  (499) 
-0.37426300000000001

>  <SCORE.heavy>  (499) 
14

>  <OrigSmiles>  (499) 
C#CCNC(=O)CN1C2CCC1CC2

>  <SuCOS_Score>  (499) 
0.52357464708449664

>  <Max_SuCOS_Score>  (499) 
0.52357464708449664

>  <Cum_SuCOS_Score>  (499) 
3.1076320620898485

>  <TransFSScore_50nM>  (499) 
0.0013860000000000001

>  <TransFSScore_1uM>  (499) 
0.028955999999999999

>  <TransFSScore_10nM>  (499) 
0.010670000000000001

>  <TransFSScore_200nM>  (499) 
0.017357999999999998

>  <TransFSScore>  (499) 
0.0145925

>  <FeatureSteinScore>  (499) 
0.40852066408154936

$$$$
C#CCNC(=O)CN1C2CCC1CNC2
     RDKit          3D

 15 16  0  0  0  0  0  0  0  0999 V2000
    6.9756   -6.4806   28.4301 C   0  0  0  0  0  0  0  0  0  0  0  0
    7.9129   -6.0483   27.8073 C   0  0  0  0  0  0  0  0  0  0  0  0
    9.0534   -5.5235   27.0492 C   0  0  0  0  0  0  0  0  0  0  0  0
    8.5846   -4.6980   25.9398 N   0  0  0  0  0  0  0  0  0  0  0  0
    9.4341   -4.3201   24.8509 C   0  0  0  0  0  0  0  0  0  0  0  0
   10.6347   -4.7039   24.8110 O   0  0  0  0  0  0  0  0  0  0  0  0
    8.8748   -3.5082   23.7273 C   0  0  0  0  0  0  0  0  0  0  0  0
    9.1719   -2.0833   23.9784 N   0  0  0  0  0  0  0  0  0  0  0  0
    8.4912   -1.1002   23.1383 C   0  0  1  0  0  0  0  0  0  0  0  0
    9.0859    0.2300   23.6186 C   0  0  0  0  0  0  0  0  0  0  0  0
   10.4855   -0.1480   24.1061 C   0  0  0  0  0  0  0  0  0  0  0  0
   10.5657   -1.6600   23.8593 C   0  0  2  0  0  0  0  0  0  0  0  0
   11.1250   -1.9427   22.4323 C   0  0  0  0  0  0  0  0  0  0  0  0
   10.0803   -2.0564   21.3854 N   0  0  0  0  0  0  0  0  0  0  0  0
    8.8158   -1.3208   21.6300 C   0  0  0  0  0  0  0  0  0  0  0  0
  1  2  3  0
  2  3  1  0
  3  4  1  0
  4  5  1  0
  5  6  2  0
  5  7  1  0
  7  8  1  0
  8  9  1  0
  9 10  1  1
 10 11  1  0
 12 11  1  6
 12 13  1  0
 12  8  1  0
 13 14  1  0
 14 15  1  0
 15  9  1  0
M  END
>  <Hit>  (500) 
Mpro-x0991_0

>  <Receptor>  (500) 
Mpro-x0874_0

>  <SCORE>  (500) 
-10.487399999999999

>  <SCORE.norm>  (500) 
-0.69916299999999998

>  <SCORE.heavy>  (500) 
15

>  <OrigSmiles>  (500) 
C#CCNC(=O)CN1C2CCC1CNC2

>  <SuCOS_Score>  (500) 
0.48956111834600019

>  <Max_SuCOS_Score>  (500) 
0.48956111834600019

>  <Cum_SuCOS_Score>  (500) 
3.7634481550277625

>  <TransFSScore_50nM>  (500) 
0.027063

>  <TransFSScore_1uM>  (500) 
0.055063000000000001

>  <TransFSScore_10nM>  (500) 
0.00089300000000000002

>  <TransFSScore_200nM>  (500) 
0.017246000000000001

>  <TransFSScore>  (500) 
0.025066250000000002

>  <FeatureSteinScore>  (500) 
0.45441832729053366

$$$$
